REMARK  Name = ../refined-set-2016/4fys/4fys_pocket.pdb
REMARK  300 active torsions:
REMARK  status: ('A' for Active; 'I' for Inactive)
REMARK    1  A    between atoms: _1  and  _3
REMARK    2  A    between atoms: _3  and  _4
REMARK    3  A    between atoms: _3  and  _6
REMARK    4  A    between atoms: _6  and  _7
REMARK    5  A    between atoms: _7  and  _8
REMARK    6  A    between atoms: _13  and  _15
REMARK    7  A    between atoms: _15  and  _16
REMARK    8  A    between atoms: _15  and  _18
REMARK    9  A    between atoms: _18  and  _19
REMARK   10  A    between atoms: _19  and  _20
REMARK   11  A    between atoms: _22  and  _24
REMARK   12  A    between atoms: _24  and  _25
REMARK   13  A    between atoms: _24  and  _27
REMARK   14  A    between atoms: _27  and  _28
REMARK   15  A    between atoms: _28  and  _29
REMARK   16  A    between atoms: _34  and  _36
REMARK   17  A    between atoms: _36  and  _37
REMARK   18  A    between atoms: _40  and  _42
REMARK   19  A    between atoms: _42  and  _43
REMARK   20  A    between atoms: _42  and  _45
REMARK   21  A    between atoms: _45  and  _46
REMARK   22  A    between atoms: _51  and  _52
REMARK   23  A    between atoms: _54  and  _56
REMARK   24  A    between atoms: _56  and  _57
REMARK   25  A    between atoms: _56  and  _59
REMARK   26  A    between atoms: _59  and  _60
REMARK   27  A    between atoms: _63  and  _65
REMARK   28  A    between atoms: _65  and  _66
REMARK   29  A    between atoms: _65  and  _68
REMARK   30  A    between atoms: _68  and  _69
REMARK   31  A    between atoms: _75  and  _77
REMARK   32  A    between atoms: _77  and  _78
REMARK   33  A    between atoms: _77  and  _80
REMARK   34  A    between atoms: _80  and  _81
REMARK   35  A    between atoms: _86  and  _88
REMARK   36  A    between atoms: _88  and  _89
REMARK   37  A    between atoms: _92  and  _94
REMARK   38  A    between atoms: _94  and  _95
REMARK   39  A    between atoms: _97  and  _99
REMARK   40  A    between atoms: _99  and  _100
REMARK   41  A    between atoms: _103  and  _105
REMARK   42  A    between atoms: _105  and  _106
REMARK   43  A    between atoms: _105  and  _108
REMARK   44  A    between atoms: _108  and  _109
REMARK   45  A    between atoms: _109  and  _110
REMARK   46  A    between atoms: _112  and  _114
REMARK   47  A    between atoms: _114  and  _115
REMARK   48  A    between atoms: _114  and  _117
REMARK   49  A    between atoms: _117  and  _118
REMARK   50  A    between atoms: _118  and  _119
REMARK   51  A    between atoms: _122  and  _124
REMARK   52  A    between atoms: _124  and  _125
REMARK   53  A    between atoms: _124  and  _127
REMARK   54  A    between atoms: _127  and  _128
REMARK   55  A    between atoms: _133  and  _135
REMARK   56  A    between atoms: _135  and  _136
REMARK   57  A    between atoms: _135  and  _138
REMARK   58  A    between atoms: _138  and  _139
REMARK   59  A    between atoms: _142  and  _144
REMARK   60  A    between atoms: _144  and  _145
REMARK   61  A    between atoms: _144  and  _147
REMARK   62  A    between atoms: _147  and  _148
REMARK   63  A    between atoms: _153  and  _154
REMARK   64  A    between atoms: _156  and  _158
REMARK   65  A    between atoms: _158  and  _159
REMARK   66  A    between atoms: _158  and  _161
REMARK   67  A    between atoms: _161  and  _162
REMARK   68  A    between atoms: _162  and  _163
REMARK   69  A    between atoms: _163  and  _164
REMARK   70  A    between atoms: _173  and  _175
REMARK   71  A    between atoms: _175  and  _176
REMARK   72  A    between atoms: _175  and  _178
REMARK   73  A    between atoms: _178  and  _179
REMARK   74  A    between atoms: _184  and  _186
REMARK   75  A    between atoms: _186  and  _187
REMARK   76  A    between atoms: _186  and  _189
REMARK   77  A    between atoms: _189  and  _190
REMARK   78  A    between atoms: _192  and  _194
REMARK   79  A    between atoms: _194  and  _195
REMARK   80  A    between atoms: _194  and  _197
REMARK   81  A    between atoms: _197  and  _198
REMARK   82  A    between atoms: _200  and  _202
REMARK   83  A    between atoms: _202  and  _203
REMARK   84  A    between atoms: _202  and  _205
REMARK   85  A    between atoms: _205  and  _206
REMARK   86  A    between atoms: _206  and  _207
REMARK   87  A    between atoms: _210  and  _212
REMARK   88  A    between atoms: _212  and  _213
REMARK   89  A    between atoms: _212  and  _215
REMARK   90  A    between atoms: _215  and  _216
REMARK   91  A    between atoms: _216  and  _217
REMARK   92  A    between atoms: _217  and  _218
REMARK   93  A    between atoms: _227  and  _229
REMARK   94  A    between atoms: _229  and  _230
REMARK   95  A    between atoms: _229  and  _232
REMARK   96  A    between atoms: _235  and  _237
REMARK   97  A    between atoms: _237  and  _238
REMARK   98  A    between atoms: _237  and  _240
REMARK   99  A    between atoms: _240  and  _241
REMARK  100  A    between atoms: _244  and  _246
REMARK  101  A    between atoms: _246  and  _247
REMARK  102  A    between atoms: _246  and  _249
REMARK  103  A    between atoms: _252  and  _254
REMARK  104  A    between atoms: _254  and  _255
REMARK  105  A    between atoms: _254  and  _257
REMARK  106  A    between atoms: _257  and  _258
REMARK  107  A    between atoms: _261  and  _263
REMARK  108  A    between atoms: _263  and  _264
REMARK  109  A    between atoms: _267  and  _269
REMARK  110  A    between atoms: _269  and  _270
REMARK  111  A    between atoms: _269  and  _272
REMARK  112  A    between atoms: _272  and  _273
REMARK  113  A    between atoms: _278  and  _280
REMARK  114  A    between atoms: _280  and  _281
REMARK  115  A    between atoms: _280  and  _283
REMARK  116  A    between atoms: _283  and  _284
REMARK  117  A    between atoms: _284  and  _285
REMARK  118  A    between atoms: _288  and  _290
REMARK  119  A    between atoms: _290  and  _291
REMARK  120  A    between atoms: _290  and  _293
REMARK  121  A    between atoms: _293  and  _294
REMARK  122  A    between atoms: _299  and  _301
REMARK  123  A    between atoms: _301  and  _302
REMARK  124  A    between atoms: _301  and  _304
REMARK  125  A    between atoms: _304  and  _305
REMARK  126  A    between atoms: _315  and  _317
REMARK  127  A    between atoms: _317  and  _318
REMARK  128  A    between atoms: _317  and  _320
REMARK  129  A    between atoms: _320  and  _321
REMARK  130  A    between atoms: _324  and  _326
REMARK  131  A    between atoms: _326  and  _327
REMARK  132  A    between atoms: _326  and  _329
REMARK  133  A    between atoms: _329  and  _330
REMARK  134  A    between atoms: _335  and  _337
REMARK  135  A    between atoms: _337  and  _338
REMARK  136  A    between atoms: _337  and  _340
REMARK  137  A    between atoms: _340  and  _341
REMARK  138  A    between atoms: _341  and  _342
REMARK  139  A    between atoms: _345  and  _347
REMARK  140  A    between atoms: _347  and  _348
REMARK  141  A    between atoms: _351  and  _353
REMARK  142  A    between atoms: _353  and  _354
REMARK  143  A    between atoms: _353  and  _356
REMARK  144  A    between atoms: _356  and  _357
REMARK  145  A    between atoms: _359  and  _361
REMARK  146  A    between atoms: _361  and  _362
REMARK  147  A    between atoms: _361  and  _364
REMARK  148  A    between atoms: _364  and  _365
REMARK  149  A    between atoms: _365  and  _366
REMARK  150  A    between atoms: _369  and  _371
REMARK  151  A    between atoms: _371  and  _372
REMARK  152  A    between atoms: _371  and  _374
REMARK  153  A    between atoms: _374  and  _375
REMARK  154  A    between atoms: _380  and  _381
REMARK  155  A    between atoms: _383  and  _385
REMARK  156  A    between atoms: _385  and  _386
REMARK  157  A    between atoms: _385  and  _388
REMARK  158  A    between atoms: _388  and  _389
REMARK  159  A    between atoms: _392  and  _394
REMARK  160  A    between atoms: _394  and  _395
REMARK  161  A    between atoms: _394  and  _397
REMARK  162  A    between atoms: _397  and  _398
REMARK  163  A    between atoms: _403  and  _405
REMARK  164  A    between atoms: _405  and  _406
REMARK  165  A    between atoms: _405  and  _408
REMARK  166  A    between atoms: _408  and  _409
REMARK  167  A    between atoms: _412  and  _414
REMARK  168  A    between atoms: _414  and  _415
REMARK  169  A    between atoms: _414  and  _417
REMARK  170  A    between atoms: _417  and  _418
REMARK  171  A    between atoms: _423  and  _424
REMARK  172  A    between atoms: _426  and  _428
REMARK  173  A    between atoms: _428  and  _429
REMARK  174  A    between atoms: _428  and  _431
REMARK  175  A    between atoms: _431  and  _432
REMARK  176  A    between atoms: _432  and  _433
REMARK  177  A    between atoms: _433  and  _434
REMARK  178  A    between atoms: _443  and  _445
REMARK  179  A    between atoms: _445  and  _446
REMARK  180  A    between atoms: _445  and  _448
REMARK  181  A    between atoms: _451  and  _453
REMARK  182  A    between atoms: _453  and  _454
REMARK  183  A    between atoms: _457  and  _459
REMARK  184  A    between atoms: _459  and  _460
REMARK  185  A    between atoms: _459  and  _462
REMARK  186  A    between atoms: _465  and  _467
REMARK  187  A    between atoms: _467  and  _468
REMARK  188  A    between atoms: _467  and  _470
REMARK  189  A    between atoms: _470  and  _471
REMARK  190  A    between atoms: _473  and  _475
REMARK  191  A    between atoms: _475  and  _476
REMARK  192  A    between atoms: _475  and  _478
REMARK  193  A    between atoms: _478  and  _479
REMARK  194  A    between atoms: _479  and  _480
REMARK  195  A    between atoms: _483  and  _485
REMARK  196  A    between atoms: _485  and  _486
REMARK  197  A    between atoms: _485  and  _488
REMARK  198  A    between atoms: _488  and  _489
REMARK  199  A    between atoms: _492  and  _494
REMARK  200  A    between atoms: _494  and  _495
REMARK  201  A    between atoms: _494  and  _497
REMARK  202  A    between atoms: _497  and  _498
REMARK  203  A    between atoms: _504  and  _506
REMARK  204  A    between atoms: _506  and  _507
REMARK  205  A    between atoms: _506  and  _509
REMARK  206  A    between atoms: _509  and  _510
REMARK  207  A    between atoms: _513  and  _515
REMARK  208  A    between atoms: _515  and  _516
REMARK  209  A    between atoms: _519  and  _521
REMARK  210  A    between atoms: _521  and  _522
REMARK  211  A    between atoms: _521  and  _524
REMARK  212  A    between atoms: _524  and  _525
REMARK  213  A    between atoms: _530  and  _531
REMARK  214  A    between atoms: _533  and  _535
REMARK  215  A    between atoms: _535  and  _536
REMARK  216  A    between atoms: _535  and  _538
REMARK  217  A    between atoms: _538  and  _539
REMARK  218  A    between atoms: _541  and  _543
REMARK  219  A    between atoms: _543  and  _544
REMARK  220  A    between atoms: _543  and  _546
REMARK  221  A    between atoms: _546  and  _547
REMARK  222  A    between atoms: _550  and  _552
REMARK  223  A    between atoms: _552  and  _553
REMARK  224  A    between atoms: _552  and  _555
REMARK  225  A    between atoms: _555  and  _556
REMARK  226  A    between atoms: _558  and  _560
REMARK  227  A    between atoms: _560  and  _561
REMARK  228  A    between atoms: _560  and  _563
REMARK  229  A    between atoms: _563  and  _564
REMARK  230  A    between atoms: _567  and  _569
REMARK  231  A    between atoms: _569  and  _570
REMARK  232  A    between atoms: _569  and  _572
REMARK  233  A    between atoms: _572  and  _573
REMARK  234  A    between atoms: _575  and  _577
REMARK  235  A    between atoms: _577  and  _578
REMARK  236  A    between atoms: _577  and  _580
REMARK  237  A    between atoms: _580  and  _581
REMARK  238  A    between atoms: _584  and  _586
REMARK  239  A    between atoms: _586  and  _587
REMARK  240  A    between atoms: _586  and  _589
REMARK  241  A    between atoms: _589  and  _590
REMARK  242  A    between atoms: _595  and  _597
REMARK  243  A    between atoms: _597  and  _598
REMARK  244  A    between atoms: _597  and  _600
REMARK  245  A    between atoms: _600  and  _601
REMARK  246  A    between atoms: _603  and  _605
REMARK  247  A    between atoms: _605  and  _606
REMARK  248  A    between atoms: _605  and  _608
REMARK  249  A    between atoms: _608  and  _609
REMARK  250  A    between atoms: _615  and  _617
REMARK  251  A    between atoms: _617  and  _618
REMARK  252  A    between atoms: _617  and  _620
REMARK  253  A    between atoms: _620  and  _621
REMARK  254  A    between atoms: _623  and  _625
REMARK  255  A    between atoms: _625  and  _626
REMARK  256  A    between atoms: _625  and  _628
REMARK  257  A    between atoms: _628  and  _629
REMARK  258  A    between atoms: _635  and  _637
REMARK  259  A    between atoms: _637  and  _638
REMARK  260  A    between atoms: _637  and  _640
REMARK  261  A    between atoms: _640  and  _641
REMARK  262  A    between atoms: _643  and  _645
REMARK  263  A    between atoms: _645  and  _646
REMARK  264  A    between atoms: _645  and  _648
REMARK  265  A    between atoms: _648  and  _649
REMARK  266  A    between atoms: _654  and  _656
REMARK  267  A    between atoms: _656  and  _657
REMARK  268  A    between atoms: _656  and  _659
REMARK  269  A    between atoms: _659  and  _660
REMARK  270  A    between atoms: _663  and  _665
REMARK  271  A    between atoms: _665  and  _666
REMARK  272  A    between atoms: _665  and  _668
REMARK  273  A    between atoms: _668  and  _669
REMARK  274  A    between atoms: _672  and  _674
REMARK  275  A    between atoms: _674  and  _675
REMARK  276  A    between atoms: _674  and  _677
REMARK  277  A    between atoms: _677  and  _678
REMARK  278  A    between atoms: _678  and  _679
REMARK  279  A    between atoms: _684  and  _686
REMARK  280  A    between atoms: _686  and  _687
REMARK  281  A    between atoms: _690  and  _692
REMARK  282  A    between atoms: _692  and  _693
REMARK  283  A    between atoms: _692  and  _695
REMARK  284  A    between atoms: _698  and  _700
REMARK  285  A    between atoms: _700  and  _701
REMARK  286  A    between atoms: _700  and  _703
REMARK  287  A    between atoms: _703  and  _704
REMARK  288  A    between atoms: _707  and  _709
REMARK  289  A    between atoms: _709  and  _710
REMARK  290  A    between atoms: _709  and  _712
REMARK  291  A    between atoms: _712  and  _713
REMARK  292  A    between atoms: _713  and  _714
REMARK  293  A    between atoms: _714  and  _715
REMARK  294  A    between atoms: _724  and  _726
REMARK  295  A    between atoms: _726  and  _727
REMARK  296  A    between atoms: _726  and  _729
REMARK  297  A    between atoms: _729  and  _730
REMARK  298  A    between atoms: _730  and  _731
REMARK  299  A    between atoms: _731  and  _732
REMARK  300  A    between atoms: _732  and  _733
REMARK                            x       y       z     vdW  Elec       q    Type
REMARK                         _______ _______ _______ _____ _____    ______ ____
ROOT
ATOM      1  C   MET A   2     114.318  14.501  27.353  0.00  0.00    +0.241 C 
ATOM      2  O   MET A   2     113.891  14.324  28.505  0.00  0.00    -0.273 OA
ATOM      3  N   GLN A   3     113.785  15.392  26.518  0.00  0.00    -0.297 N 
ATOM      4  H   GLN A   3     114.166  15.491  25.555  0.00  0.00    +0.150 HD
ENDROOT
BRANCH   3   5
ATOM      5  CA  GLN A   3     112.675  16.226  26.944  0.00  0.00    +0.149 C 
BRANCH   5   6
ATOM      6  C   GLN A   3     111.436  15.356  27.192  0.00  0.00    +0.241 C 
ATOM      7  N   ALA A   4     110.736  15.591  28.312  0.00  0.00    -0.298 N 
ATOM      8  H   ALA A   4     109.871  15.035  28.465  0.00  0.00    +0.150 HD
ATOM      9  O   GLN A   3     111.152  14.427  26.391  0.00  0.00    -0.273 OA
BRANCH   7  10
ATOM     10  CA  ALA A   4     111.106  16.585  29.347  0.00  0.00    +0.137 C 
ATOM     11  CB  ALA A   4     109.853  17.062  30.083  0.00  0.00    +0.030 C 
BRANCH  10  12
ATOM     12  C   ALA A   4     112.116  16.089  30.374  0.00  0.00    +0.227 C 
ATOM     13  O   ALA A   4     113.058  16.815  30.708  0.00  0.00    -0.286 OA
ENDBRANCH  10  12
ENDBRANCH   7  10
ENDBRANCH   5   6
BRANCH   5  14
ATOM     14  CB  GLN A   3     112.377  17.329  25.920  0.00  0.00    +0.039 C 
BRANCH  14  15
ATOM     15  CG  GLN A   3     111.558  18.475  26.524  0.00  0.00    +0.087 C 
BRANCH  15  16
ATOM     16  CD  GLN A   3     111.178  19.528  25.504  0.00  0.00    +0.219 C 
ATOM     17  NE2 GLN A   3     111.274  20.804  25.887  0.00  0.00    -0.329 N 
ATOM     18 HE21 GLN A   3     111.580  21.035  26.854  0.00  0.00    +0.145 HD
ATOM     19 HE22 GLN A   3     111.042  21.566  25.219  0.00  0.00    +0.145 HD
ATOM     20  OE1 GLN A   3     110.825  19.209  24.387  0.00  0.00    -0.275 OA
ENDBRANCH  15  16
ENDBRANCH  14  15
ENDBRANCH   5  14
ENDBRANCH   3   5
BRANCH   1  21
ATOM     21  CA  MET A   2     115.543  13.720  26.847  0.00  0.00    +0.149 C 
BRANCH  21  24
ATOM     22  C   GLN A   1     115.047  12.166  25.011  0.00  0.00    +0.238 C 
ATOM     23  O   GLN A   1     114.666  11.293  25.795  0.00  0.00    -0.274 OA
ATOM     24  N   MET A   2     115.484  13.361  25.423  0.00  0.00    -0.297 N 
ATOM     25  H   MET A   2     115.791  14.057  24.714  0.00  0.00    +0.150 HD
BRANCH  22  26
ATOM     26  CA  GLN A   1     115.041  11.909  23.501  0.00  0.00    +0.145 C 
BRANCH  26  27
ATOM     27  N   GLN A   1     116.056  10.889  23.288  0.00  0.00    -0.238 NA
ATOM     28  H   GLN A   1     116.179  10.159  24.019  0.00  0.00    +0.142 HD
ENDBRANCH  26  27
BRANCH  26  29
ATOM     29  CB  GLN A   1     113.645  11.418  23.010  0.00  0.00    +0.036 C 
BRANCH  29  30
ATOM     30  CG  GLN A   1     112.465  12.336  23.370  0.00  0.00    +0.087 C 
BRANCH  30  31
ATOM     31  CD  GLN A   1     112.613  13.715  22.732  0.00  0.00    +0.219 C 
ATOM     32  NE2 GLN A   1     112.238  14.780  23.467  0.00  0.00    -0.329 N 
ATOM     33 HE21 GLN A   1     111.816  14.640  24.407  0.00  0.00    +0.145 HD
ATOM     34 HE22 GLN A   1     112.370  15.742  23.094  0.00  0.00    +0.145 HD
ATOM     35  OE1 GLN A   1     113.117  13.826  21.613  0.00  0.00    -0.275 OA
ENDBRANCH  30  31
ENDBRANCH  29  30
ENDBRANCH  26  29
ENDBRANCH  22  26
ENDBRANCH  21  24
BRANCH  21  36
ATOM     36  CB  MET A   2     116.844  14.510  27.128  0.00  0.00    +0.041 C 
BRANCH  36  37
ATOM     37  CG  MET A   2     118.086  13.895  26.450  0.00  0.00    +0.060 C 
BRANCH  37  38
ATOM     38  SD  MET A   2     118.256  12.150  26.913  0.00  0.00    -0.139 S 
ATOM     39  CE  MET A   2     120.016  11.850  26.657  0.00  0.00    +0.069 C 
ENDBRANCH  37  38
ENDBRANCH  36  37
ENDBRANCH  21  36
ENDBRANCH   1  21
TORSDOF 17
REMARK  Name = ../refined-set-2016/4fys/4fys_pocket.pdb
REMARK  300 active torsions:
REMARK  status: ('A' for Active; 'I' for Inactive)
REMARK    1  A    between atoms: _1  and  _3
REMARK    2  A    between atoms: _3  and  _4
REMARK    3  A    between atoms: _3  and  _6
REMARK    4  A    between atoms: _6  and  _7
REMARK    5  A    between atoms: _7  and  _8
REMARK    6  A    between atoms: _13  and  _15
REMARK    7  A    between atoms: _15  and  _16
REMARK    8  A    between atoms: _15  and  _18
REMARK    9  A    between atoms: _18  and  _19
REMARK   10  A    between atoms: _19  and  _20
REMARK   11  A    between atoms: _22  and  _24
REMARK   12  A    between atoms: _24  and  _25
REMARK   13  A    between atoms: _24  and  _27
REMARK   14  A    between atoms: _27  and  _28
REMARK   15  A    between atoms: _28  and  _29
REMARK   16  A    between atoms: _34  and  _36
REMARK   17  A    between atoms: _36  and  _37
REMARK   18  A    between atoms: _40  and  _42
REMARK   19  A    between atoms: _42  and  _43
REMARK   20  A    between atoms: _42  and  _45
REMARK   21  A    between atoms: _45  and  _46
REMARK   22  A    between atoms: _51  and  _52
REMARK   23  A    between atoms: _54  and  _56
REMARK   24  A    between atoms: _56  and  _57
REMARK   25  A    between atoms: _56  and  _59
REMARK   26  A    between atoms: _59  and  _60
REMARK   27  A    between atoms: _63  and  _65
REMARK   28  A    between atoms: _65  and  _66
REMARK   29  A    between atoms: _65  and  _68
REMARK   30  A    between atoms: _68  and  _69
REMARK   31  A    between atoms: _75  and  _77
REMARK   32  A    between atoms: _77  and  _78
REMARK   33  A    between atoms: _77  and  _80
REMARK   34  A    between atoms: _80  and  _81
REMARK   35  A    between atoms: _86  and  _88
REMARK   36  A    between atoms: _88  and  _89
REMARK   37  A    between atoms: _92  and  _94
REMARK   38  A    between atoms: _94  and  _95
REMARK   39  A    between atoms: _97  and  _99
REMARK   40  A    between atoms: _99  and  _100
REMARK   41  A    between atoms: _103  and  _105
REMARK   42  A    between atoms: _105  and  _106
REMARK   43  A    between atoms: _105  and  _108
REMARK   44  A    between atoms: _108  and  _109
REMARK   45  A    between atoms: _109  and  _110
REMARK   46  A    between atoms: _112  and  _114
REMARK   47  A    between atoms: _114  and  _115
REMARK   48  A    between atoms: _114  and  _117
REMARK   49  A    between atoms: _117  and  _118
REMARK   50  A    between atoms: _118  and  _119
REMARK   51  A    between atoms: _122  and  _124
REMARK   52  A    between atoms: _124  and  _125
REMARK   53  A    between atoms: _124  and  _127
REMARK   54  A    between atoms: _127  and  _128
REMARK   55  A    between atoms: _133  and  _135
REMARK   56  A    between atoms: _135  and  _136
REMARK   57  A    between atoms: _135  and  _138
REMARK   58  A    between atoms: _138  and  _139
REMARK   59  A    between atoms: _142  and  _144
REMARK   60  A    between atoms: _144  and  _145
REMARK   61  A    between atoms: _144  and  _147
REMARK   62  A    between atoms: _147  and  _148
REMARK   63  A    between atoms: _153  and  _154
REMARK   64  A    between atoms: _156  and  _158
REMARK   65  A    between atoms: _158  and  _159
REMARK   66  A    between atoms: _158  and  _161
REMARK   67  A    between atoms: _161  and  _162
REMARK   68  A    between atoms: _162  and  _163
REMARK   69  A    between atoms: _163  and  _164
REMARK   70  A    between atoms: _173  and  _175
REMARK   71  A    between atoms: _175  and  _176
REMARK   72  A    between atoms: _175  and  _178
REMARK   73  A    between atoms: _178  and  _179
REMARK   74  A    between atoms: _184  and  _186
REMARK   75  A    between atoms: _186  and  _187
REMARK   76  A    between atoms: _186  and  _189
REMARK   77  A    between atoms: _189  and  _190
REMARK   78  A    between atoms: _192  and  _194
REMARK   79  A    between atoms: _194  and  _195
REMARK   80  A    between atoms: _194  and  _197
REMARK   81  A    between atoms: _197  and  _198
REMARK   82  A    between atoms: _200  and  _202
REMARK   83  A    between atoms: _202  and  _203
REMARK   84  A    between atoms: _202  and  _205
REMARK   85  A    between atoms: _205  and  _206
REMARK   86  A    between atoms: _206  and  _207
REMARK   87  A    between atoms: _210  and  _212
REMARK   88  A    between atoms: _212  and  _213
REMARK   89  A    between atoms: _212  and  _215
REMARK   90  A    between atoms: _215  and  _216
REMARK   91  A    between atoms: _216  and  _217
REMARK   92  A    between atoms: _217  and  _218
REMARK   93  A    between atoms: _227  and  _229
REMARK   94  A    between atoms: _229  and  _230
REMARK   95  A    between atoms: _229  and  _232
REMARK   96  A    between atoms: _235  and  _237
REMARK   97  A    between atoms: _237  and  _238
REMARK   98  A    between atoms: _237  and  _240
REMARK   99  A    between atoms: _240  and  _241
REMARK  100  A    between atoms: _244  and  _246
REMARK  101  A    between atoms: _246  and  _247
REMARK  102  A    between atoms: _246  and  _249
REMARK  103  A    between atoms: _252  and  _254
REMARK  104  A    between atoms: _254  and  _255
REMARK  105  A    between atoms: _254  and  _257
REMARK  106  A    between atoms: _257  and  _258
REMARK  107  A    between atoms: _261  and  _263
REMARK  108  A    between atoms: _263  and  _264
REMARK  109  A    between atoms: _267  and  _269
REMARK  110  A    between atoms: _269  and  _270
REMARK  111  A    between atoms: _269  and  _272
REMARK  112  A    between atoms: _272  and  _273
REMARK  113  A    between atoms: _278  and  _280
REMARK  114  A    between atoms: _280  and  _281
REMARK  115  A    between atoms: _280  and  _283
REMARK  116  A    between atoms: _283  and  _284
REMARK  117  A    between atoms: _284  and  _285
REMARK  118  A    between atoms: _288  and  _290
REMARK  119  A    between atoms: _290  and  _291
REMARK  120  A    between atoms: _290  and  _293
REMARK  121  A    between atoms: _293  and  _294
REMARK  122  A    between atoms: _299  and  _301
REMARK  123  A    between atoms: _301  and  _302
REMARK  124  A    between atoms: _301  and  _304
REMARK  125  A    between atoms: _304  and  _305
REMARK  126  A    between atoms: _315  and  _317
REMARK  127  A    between atoms: _317  and  _318
REMARK  128  A    between atoms: _317  and  _320
REMARK  129  A    between atoms: _320  and  _321
REMARK  130  A    between atoms: _324  and  _326
REMARK  131  A    between atoms: _326  and  _327
REMARK  132  A    between atoms: _326  and  _329
REMARK  133  A    between atoms: _329  and  _330
REMARK  134  A    between atoms: _335  and  _337
REMARK  135  A    between atoms: _337  and  _338
REMARK  136  A    between atoms: _337  and  _340
REMARK  137  A    between atoms: _340  and  _341
REMARK  138  A    between atoms: _341  and  _342
REMARK  139  A    between atoms: _345  and  _347
REMARK  140  A    between atoms: _347  and  _348
REMARK  141  A    between atoms: _351  and  _353
REMARK  142  A    between atoms: _353  and  _354
REMARK  143  A    between atoms: _353  and  _356
REMARK  144  A    between atoms: _356  and  _357
REMARK  145  A    between atoms: _359  and  _361
REMARK  146  A    between atoms: _361  and  _362
REMARK  147  A    between atoms: _361  and  _364
REMARK  148  A    between atoms: _364  and  _365
REMARK  149  A    between atoms: _365  and  _366
REMARK  150  A    between atoms: _369  and  _371
REMARK  151  A    between atoms: _371  and  _372
REMARK  152  A    between atoms: _371  and  _374
REMARK  153  A    between atoms: _374  and  _375
REMARK  154  A    between atoms: _380  and  _381
REMARK  155  A    between atoms: _383  and  _385
REMARK  156  A    between atoms: _385  and  _386
REMARK  157  A    between atoms: _385  and  _388
REMARK  158  A    between atoms: _388  and  _389
REMARK  159  A    between atoms: _392  and  _394
REMARK  160  A    between atoms: _394  and  _395
REMARK  161  A    between atoms: _394  and  _397
REMARK  162  A    between atoms: _397  and  _398
REMARK  163  A    between atoms: _403  and  _405
REMARK  164  A    between atoms: _405  and  _406
REMARK  165  A    between atoms: _405  and  _408
REMARK  166  A    between atoms: _408  and  _409
REMARK  167  A    between atoms: _412  and  _414
REMARK  168  A    between atoms: _414  and  _415
REMARK  169  A    between atoms: _414  and  _417
REMARK  170  A    between atoms: _417  and  _418
REMARK  171  A    between atoms: _423  and  _424
REMARK  172  A    between atoms: _426  and  _428
REMARK  173  A    between atoms: _428  and  _429
REMARK  174  A    between atoms: _428  and  _431
REMARK  175  A    between atoms: _431  and  _432
REMARK  176  A    between atoms: _432  and  _433
REMARK  177  A    between atoms: _433  and  _434
REMARK  178  A    between atoms: _443  and  _445
REMARK  179  A    between atoms: _445  and  _446
REMARK  180  A    between atoms: _445  and  _448
REMARK  181  A    between atoms: _451  and  _453
REMARK  182  A    between atoms: _453  and  _454
REMARK  183  A    between atoms: _457  and  _459
REMARK  184  A    between atoms: _459  and  _460
REMARK  185  A    between atoms: _459  and  _462
REMARK  186  A    between atoms: _465  and  _467
REMARK  187  A    between atoms: _467  and  _468
REMARK  188  A    between atoms: _467  and  _470
REMARK  189  A    between atoms: _470  and  _471
REMARK  190  A    between atoms: _473  and  _475
REMARK  191  A    between atoms: _475  and  _476
REMARK  192  A    between atoms: _475  and  _478
REMARK  193  A    between atoms: _478  and  _479
REMARK  194  A    between atoms: _479  and  _480
REMARK  195  A    between atoms: _483  and  _485
REMARK  196  A    between atoms: _485  and  _486
REMARK  197  A    between atoms: _485  and  _488
REMARK  198  A    between atoms: _488  and  _489
REMARK  199  A    between atoms: _492  and  _494
REMARK  200  A    between atoms: _494  and  _495
REMARK  201  A    between atoms: _494  and  _497
REMARK  202  A    between atoms: _497  and  _498
REMARK  203  A    between atoms: _504  and  _506
REMARK  204  A    between atoms: _506  and  _507
REMARK  205  A    between atoms: _506  and  _509
REMARK  206  A    between atoms: _509  and  _510
REMARK  207  A    between atoms: _513  and  _515
REMARK  208  A    between atoms: _515  and  _516
REMARK  209  A    between atoms: _519  and  _521
REMARK  210  A    between atoms: _521  and  _522
REMARK  211  A    between atoms: _521  and  _524
REMARK  212  A    between atoms: _524  and  _525
REMARK  213  A    between atoms: _530  and  _531
REMARK  214  A    between atoms: _533  and  _535
REMARK  215  A    between atoms: _535  and  _536
REMARK  216  A    between atoms: _535  and  _538
REMARK  217  A    between atoms: _538  and  _539
REMARK  218  A    between atoms: _541  and  _543
REMARK  219  A    between atoms: _543  and  _544
REMARK  220  A    between atoms: _543  and  _546
REMARK  221  A    between atoms: _546  and  _547
REMARK  222  A    between atoms: _550  and  _552
REMARK  223  A    between atoms: _552  and  _553
REMARK  224  A    between atoms: _552  and  _555
REMARK  225  A    between atoms: _555  and  _556
REMARK  226  A    between atoms: _558  and  _560
REMARK  227  A    between atoms: _560  and  _561
REMARK  228  A    between atoms: _560  and  _563
REMARK  229  A    between atoms: _563  and  _564
REMARK  230  A    between atoms: _567  and  _569
REMARK  231  A    between atoms: _569  and  _570
REMARK  232  A    between atoms: _569  and  _572
REMARK  233  A    between atoms: _572  and  _573
REMARK  234  A    between atoms: _575  and  _577
REMARK  235  A    between atoms: _577  and  _578
REMARK  236  A    between atoms: _577  and  _580
REMARK  237  A    between atoms: _580  and  _581
REMARK  238  A    between atoms: _584  and  _586
REMARK  239  A    between atoms: _586  and  _587
REMARK  240  A    between atoms: _586  and  _589
REMARK  241  A    between atoms: _589  and  _590
REMARK  242  A    between atoms: _595  and  _597
REMARK  243  A    between atoms: _597  and  _598
REMARK  244  A    between atoms: _597  and  _600
REMARK  245  A    between atoms: _600  and  _601
REMARK  246  A    between atoms: _603  and  _605
REMARK  247  A    between atoms: _605  and  _606
REMARK  248  A    between atoms: _605  and  _608
REMARK  249  A    between atoms: _608  and  _609
REMARK  250  A    between atoms: _615  and  _617
REMARK  251  A    between atoms: _617  and  _618
REMARK  252  A    between atoms: _617  and  _620
REMARK  253  A    between atoms: _620  and  _621
REMARK  254  A    between atoms: _623  and  _625
REMARK  255  A    between atoms: _625  and  _626
REMARK  256  A    between atoms: _625  and  _628
REMARK  257  A    between atoms: _628  and  _629
REMARK  258  A    between atoms: _635  and  _637
REMARK  259  A    between atoms: _637  and  _638
REMARK  260  A    between atoms: _637  and  _640
REMARK  261  A    between atoms: _640  and  _641
REMARK  262  A    between atoms: _643  and  _645
REMARK  263  A    between atoms: _645  and  _646
REMARK  264  A    between atoms: _645  and  _648
REMARK  265  A    between atoms: _648  and  _649
REMARK  266  A    between atoms: _654  and  _656
REMARK  267  A    between atoms: _656  and  _657
REMARK  268  A    between atoms: _656  and  _659
REMARK  269  A    between atoms: _659  and  _660
REMARK  270  A    between atoms: _663  and  _665
REMARK  271  A    between atoms: _665  and  _666
REMARK  272  A    between atoms: _665  and  _668
REMARK  273  A    between atoms: _668  and  _669
REMARK  274  A    between atoms: _672  and  _674
REMARK  275  A    between atoms: _674  and  _675
REMARK  276  A    between atoms: _674  and  _677
REMARK  277  A    between atoms: _677  and  _678
REMARK  278  A    between atoms: _678  and  _679
REMARK  279  A    between atoms: _684  and  _686
REMARK  280  A    between atoms: _686  and  _687
REMARK  281  A    between atoms: _690  and  _692
REMARK  282  A    between atoms: _692  and  _693
REMARK  283  A    between atoms: _692  and  _695
REMARK  284  A    between atoms: _698  and  _700
REMARK  285  A    between atoms: _700  and  _701
REMARK  286  A    between atoms: _700  and  _703
REMARK  287  A    between atoms: _703  and  _704
REMARK  288  A    between atoms: _707  and  _709
REMARK  289  A    between atoms: _709  and  _710
REMARK  290  A    between atoms: _709  and  _712
REMARK  291  A    between atoms: _712  and  _713
REMARK  292  A    between atoms: _713  and  _714
REMARK  293  A    between atoms: _714  and  _715
REMARK  294  A    between atoms: _724  and  _726
REMARK  295  A    between atoms: _726  and  _727
REMARK  296  A    between atoms: _726  and  _729
REMARK  297  A    between atoms: _729  and  _730
REMARK  298  A    between atoms: _730  and  _731
REMARK  299  A    between atoms: _731  and  _732
REMARK  300  A    between atoms: _732  and  _733
REMARK                            x       y       z     vdW  Elec       q    Type
REMARK                         _______ _______ _______ _____ _____    ______ ____
ROOT
ATOM      1  CA  TYR A   1     116.872  18.057  28.300  0.00  0.00    +0.149 C 
ENDROOT
BRANCH   1   2
ATOM      2  C   TYR A   1     117.269  18.269  26.839  0.00  0.00    +0.239 C 
ATOM      3  N   LEU A   2     118.324  19.056  26.611  0.00  0.00    -0.298 N 
ATOM      4  H   LEU A   2     118.834  19.462  27.421  0.00  0.00    +0.150 HD
ATOM      5  O   TYR A   1     116.625  17.726  25.930  0.00  0.00    -0.274 OA
BRANCH   3   6
ATOM      6  CA  LEU A   2     118.786  19.366  25.253  0.00  0.00    +0.137 C 
BRANCH   6   7
ATOM      7  C   LEU A   2     119.983  18.537  24.756  0.00  0.00    +0.227 C 
ATOM      8  O   LEU A   2     120.501  18.787  23.674  0.00  0.00    -0.286 OA
ENDBRANCH   6   7
BRANCH   6   9
ATOM      9  CB  LEU A   2     119.080  20.862  25.113  0.00  0.00    +0.028 C 
BRANCH   9  10
ATOM     10  CG  LEU A   2     117.832  21.755  25.168  0.00  0.00    +0.002 C 
ATOM     11  CD2 LEU A   2     118.280  23.204  25.370  0.00  0.00    +0.000 C 
ATOM     12  CD1 LEU A   2     117.032  21.607  23.856  0.00  0.00    +0.000 C 
ENDBRANCH   9  10
ENDBRANCH   6   9
ENDBRANCH   3   6
ENDBRANCH   1   2
BRANCH   1  13
ATOM     13  N   TYR A   1     117.873  18.594  29.236  0.00  0.00    -0.238 NA
ATOM     14  H   TYR A   1     117.664  19.451  29.787  0.00  0.00    +0.142 HD
ENDBRANCH   1  13
BRANCH   1  15
ATOM     15  CB  TYR A   1     115.446  18.574  28.635  0.00  0.00    +0.053 C 
BRANCH  15  16
ATOM     16  CG  TYR A   1     115.170  19.974  28.125  0.00  0.00    -0.020 A 
ATOM     17  CD2 TYR A   1     115.312  21.096  28.975  0.00  0.00    -0.001 A 
ATOM     18  CE2 TYR A   1     115.082  22.387  28.498  0.00  0.00    +0.036 A 
ATOM     19  CZ  TYR A   1     114.663  22.574  27.189  0.00  0.00    +0.134 A 
ATOM     20  CE1 TYR A   1     114.480  21.469  26.338  0.00  0.00    +0.036 A 
ATOM     21  CD1 TYR A   1     114.730  20.188  26.818  0.00  0.00    -0.001 A 
BRANCH  19  22
ATOM     22  OH  TYR A   1     114.412  23.846  26.712  0.00  0.00    -0.506 OA
ATOM     23  HH  TYR A   1     114.125  23.792  25.766  0.00  0.00    +0.292 HD
ENDBRANCH  19  22
ENDBRANCH  15  16
ENDBRANCH   1  15
TORSDOF 9
REMARK  Name = ../refined-set-2016/4fys/4fys_pocket.pdb
REMARK  300 active torsions:
REMARK  status: ('A' for Active; 'I' for Inactive)
REMARK    1  A    between atoms: _1  and  _3
REMARK    2  A    between atoms: _3  and  _4
REMARK    3  A    between atoms: _3  and  _6
REMARK    4  A    between atoms: _6  and  _7
REMARK    5  A    between atoms: _7  and  _8
REMARK    6  A    between atoms: _13  and  _15
REMARK    7  A    between atoms: _15  and  _16
REMARK    8  A    between atoms: _15  and  _18
REMARK    9  A    between atoms: _18  and  _19
REMARK   10  A    between atoms: _19  and  _20
REMARK   11  A    between atoms: _22  and  _24
REMARK   12  A    between atoms: _24  and  _25
REMARK   13  A    between atoms: _24  and  _27
REMARK   14  A    between atoms: _27  and  _28
REMARK   15  A    between atoms: _28  and  _29
REMARK   16  A    between atoms: _34  and  _36
REMARK   17  A    between atoms: _36  and  _37
REMARK   18  A    between atoms: _40  and  _42
REMARK   19  A    between atoms: _42  and  _43
REMARK   20  A    between atoms: _42  and  _45
REMARK   21  A    between atoms: _45  and  _46
REMARK   22  A    between atoms: _51  and  _52
REMARK   23  A    between atoms: _54  and  _56
REMARK   24  A    between atoms: _56  and  _57
REMARK   25  A    between atoms: _56  and  _59
REMARK   26  A    between atoms: _59  and  _60
REMARK   27  A    between atoms: _63  and  _65
REMARK   28  A    between atoms: _65  and  _66
REMARK   29  A    between atoms: _65  and  _68
REMARK   30  A    between atoms: _68  and  _69
REMARK   31  A    between atoms: _75  and  _77
REMARK   32  A    between atoms: _77  and  _78
REMARK   33  A    between atoms: _77  and  _80
REMARK   34  A    between atoms: _80  and  _81
REMARK   35  A    between atoms: _86  and  _88
REMARK   36  A    between atoms: _88  and  _89
REMARK   37  A    between atoms: _92  and  _94
REMARK   38  A    between atoms: _94  and  _95
REMARK   39  A    between atoms: _97  and  _99
REMARK   40  A    between atoms: _99  and  _100
REMARK   41  A    between atoms: _103  and  _105
REMARK   42  A    between atoms: _105  and  _106
REMARK   43  A    between atoms: _105  and  _108
REMARK   44  A    between atoms: _108  and  _109
REMARK   45  A    between atoms: _109  and  _110
REMARK   46  A    between atoms: _112  and  _114
REMARK   47  A    between atoms: _114  and  _115
REMARK   48  A    between atoms: _114  and  _117
REMARK   49  A    between atoms: _117  and  _118
REMARK   50  A    between atoms: _118  and  _119
REMARK   51  A    between atoms: _122  and  _124
REMARK   52  A    between atoms: _124  and  _125
REMARK   53  A    between atoms: _124  and  _127
REMARK   54  A    between atoms: _127  and  _128
REMARK   55  A    between atoms: _133  and  _135
REMARK   56  A    between atoms: _135  and  _136
REMARK   57  A    between atoms: _135  and  _138
REMARK   58  A    between atoms: _138  and  _139
REMARK   59  A    between atoms: _142  and  _144
REMARK   60  A    between atoms: _144  and  _145
REMARK   61  A    between atoms: _144  and  _147
REMARK   62  A    between atoms: _147  and  _148
REMARK   63  A    between atoms: _153  and  _154
REMARK   64  A    between atoms: _156  and  _158
REMARK   65  A    between atoms: _158  and  _159
REMARK   66  A    between atoms: _158  and  _161
REMARK   67  A    between atoms: _161  and  _162
REMARK   68  A    between atoms: _162  and  _163
REMARK   69  A    between atoms: _163  and  _164
REMARK   70  A    between atoms: _173  and  _175
REMARK   71  A    between atoms: _175  and  _176
REMARK   72  A    between atoms: _175  and  _178
REMARK   73  A    between atoms: _178  and  _179
REMARK   74  A    between atoms: _184  and  _186
REMARK   75  A    between atoms: _186  and  _187
REMARK   76  A    between atoms: _186  and  _189
REMARK   77  A    between atoms: _189  and  _190
REMARK   78  A    between atoms: _192  and  _194
REMARK   79  A    between atoms: _194  and  _195
REMARK   80  A    between atoms: _194  and  _197
REMARK   81  A    between atoms: _197  and  _198
REMARK   82  A    between atoms: _200  and  _202
REMARK   83  A    between atoms: _202  and  _203
REMARK   84  A    between atoms: _202  and  _205
REMARK   85  A    between atoms: _205  and  _206
REMARK   86  A    between atoms: _206  and  _207
REMARK   87  A    between atoms: _210  and  _212
REMARK   88  A    between atoms: _212  and  _213
REMARK   89  A    between atoms: _212  and  _215
REMARK   90  A    between atoms: _215  and  _216
REMARK   91  A    between atoms: _216  and  _217
REMARK   92  A    between atoms: _217  and  _218
REMARK   93  A    between atoms: _227  and  _229
REMARK   94  A    between atoms: _229  and  _230
REMARK   95  A    between atoms: _229  and  _232
REMARK   96  A    between atoms: _235  and  _237
REMARK   97  A    between atoms: _237  and  _238
REMARK   98  A    between atoms: _237  and  _240
REMARK   99  A    between atoms: _240  and  _241
REMARK  100  A    between atoms: _244  and  _246
REMARK  101  A    between atoms: _246  and  _247
REMARK  102  A    between atoms: _246  and  _249
REMARK  103  A    between atoms: _252  and  _254
REMARK  104  A    between atoms: _254  and  _255
REMARK  105  A    between atoms: _254  and  _257
REMARK  106  A    between atoms: _257  and  _258
REMARK  107  A    between atoms: _261  and  _263
REMARK  108  A    between atoms: _263  and  _264
REMARK  109  A    between atoms: _267  and  _269
REMARK  110  A    between atoms: _269  and  _270
REMARK  111  A    between atoms: _269  and  _272
REMARK  112  A    between atoms: _272  and  _273
REMARK  113  A    between atoms: _278  and  _280
REMARK  114  A    between atoms: _280  and  _281
REMARK  115  A    between atoms: _280  and  _283
REMARK  116  A    between atoms: _283  and  _284
REMARK  117  A    between atoms: _284  and  _285
REMARK  118  A    between atoms: _288  and  _290
REMARK  119  A    between atoms: _290  and  _291
REMARK  120  A    between atoms: _290  and  _293
REMARK  121  A    between atoms: _293  and  _294
REMARK  122  A    between atoms: _299  and  _301
REMARK  123  A    between atoms: _301  and  _302
REMARK  124  A    between atoms: _301  and  _304
REMARK  125  A    between atoms: _304  and  _305
REMARK  126  A    between atoms: _315  and  _317
REMARK  127  A    between atoms: _317  and  _318
REMARK  128  A    between atoms: _317  and  _320
REMARK  129  A    between atoms: _320  and  _321
REMARK  130  A    between atoms: _324  and  _326
REMARK  131  A    between atoms: _326  and  _327
REMARK  132  A    between atoms: _326  and  _329
REMARK  133  A    between atoms: _329  and  _330
REMARK  134  A    between atoms: _335  and  _337
REMARK  135  A    between atoms: _337  and  _338
REMARK  136  A    between atoms: _337  and  _340
REMARK  137  A    between atoms: _340  and  _341
REMARK  138  A    between atoms: _341  and  _342
REMARK  139  A    between atoms: _345  and  _347
REMARK  140  A    between atoms: _347  and  _348
REMARK  141  A    between atoms: _351  and  _353
REMARK  142  A    between atoms: _353  and  _354
REMARK  143  A    between atoms: _353  and  _356
REMARK  144  A    between atoms: _356  and  _357
REMARK  145  A    between atoms: _359  and  _361
REMARK  146  A    between atoms: _361  and  _362
REMARK  147  A    between atoms: _361  and  _364
REMARK  148  A    between atoms: _364  and  _365
REMARK  149  A    between atoms: _365  and  _366
REMARK  150  A    between atoms: _369  and  _371
REMARK  151  A    between atoms: _371  and  _372
REMARK  152  A    between atoms: _371  and  _374
REMARK  153  A    between atoms: _374  and  _375
REMARK  154  A    between atoms: _380  and  _381
REMARK  155  A    between atoms: _383  and  _385
REMARK  156  A    between atoms: _385  and  _386
REMARK  157  A    between atoms: _385  and  _388
REMARK  158  A    between atoms: _388  and  _389
REMARK  159  A    between atoms: _392  and  _394
REMARK  160  A    between atoms: _394  and  _395
REMARK  161  A    between atoms: _394  and  _397
REMARK  162  A    between atoms: _397  and  _398
REMARK  163  A    between atoms: _403  and  _405
REMARK  164  A    between atoms: _405  and  _406
REMARK  165  A    between atoms: _405  and  _408
REMARK  166  A    between atoms: _408  and  _409
REMARK  167  A    between atoms: _412  and  _414
REMARK  168  A    between atoms: _414  and  _415
REMARK  169  A    between atoms: _414  and  _417
REMARK  170  A    between atoms: _417  and  _418
REMARK  171  A    between atoms: _423  and  _424
REMARK  172  A    between atoms: _426  and  _428
REMARK  173  A    between atoms: _428  and  _429
REMARK  174  A    between atoms: _428  and  _431
REMARK  175  A    between atoms: _431  and  _432
REMARK  176  A    between atoms: _432  and  _433
REMARK  177  A    between atoms: _433  and  _434
REMARK  178  A    between atoms: _443  and  _445
REMARK  179  A    between atoms: _445  and  _446
REMARK  180  A    between atoms: _445  and  _448
REMARK  181  A    between atoms: _451  and  _453
REMARK  182  A    between atoms: _453  and  _454
REMARK  183  A    between atoms: _457  and  _459
REMARK  184  A    between atoms: _459  and  _460
REMARK  185  A    between atoms: _459  and  _462
REMARK  186  A    between atoms: _465  and  _467
REMARK  187  A    between atoms: _467  and  _468
REMARK  188  A    between atoms: _467  and  _470
REMARK  189  A    between atoms: _470  and  _471
REMARK  190  A    between atoms: _473  and  _475
REMARK  191  A    between atoms: _475  and  _476
REMARK  192  A    between atoms: _475  and  _478
REMARK  193  A    between atoms: _478  and  _479
REMARK  194  A    between atoms: _479  and  _480
REMARK  195  A    between atoms: _483  and  _485
REMARK  196  A    between atoms: _485  and  _486
REMARK  197  A    between atoms: _485  and  _488
REMARK  198  A    between atoms: _488  and  _489
REMARK  199  A    between atoms: _492  and  _494
REMARK  200  A    between atoms: _494  and  _495
REMARK  201  A    between atoms: _494  and  _497
REMARK  202  A    between atoms: _497  and  _498
REMARK  203  A    between atoms: _504  and  _506
REMARK  204  A    between atoms: _506  and  _507
REMARK  205  A    between atoms: _506  and  _509
REMARK  206  A    between atoms: _509  and  _510
REMARK  207  A    between atoms: _513  and  _515
REMARK  208  A    between atoms: _515  and  _516
REMARK  209  A    between atoms: _519  and  _521
REMARK  210  A    between atoms: _521  and  _522
REMARK  211  A    between atoms: _521  and  _524
REMARK  212  A    between atoms: _524  and  _525
REMARK  213  A    between atoms: _530  and  _531
REMARK  214  A    between atoms: _533  and  _535
REMARK  215  A    between atoms: _535  and  _536
REMARK  216  A    between atoms: _535  and  _538
REMARK  217  A    between atoms: _538  and  _539
REMARK  218  A    between atoms: _541  and  _543
REMARK  219  A    between atoms: _543  and  _544
REMARK  220  A    between atoms: _543  and  _546
REMARK  221  A    between atoms: _546  and  _547
REMARK  222  A    between atoms: _550  and  _552
REMARK  223  A    between atoms: _552  and  _553
REMARK  224  A    between atoms: _552  and  _555
REMARK  225  A    between atoms: _555  and  _556
REMARK  226  A    between atoms: _558  and  _560
REMARK  227  A    between atoms: _560  and  _561
REMARK  228  A    between atoms: _560  and  _563
REMARK  229  A    between atoms: _563  and  _564
REMARK  230  A    between atoms: _567  and  _569
REMARK  231  A    between atoms: _569  and  _570
REMARK  232  A    between atoms: _569  and  _572
REMARK  233  A    between atoms: _572  and  _573
REMARK  234  A    between atoms: _575  and  _577
REMARK  235  A    between atoms: _577  and  _578
REMARK  236  A    between atoms: _577  and  _580
REMARK  237  A    between atoms: _580  and  _581
REMARK  238  A    between atoms: _584  and  _586
REMARK  239  A    between atoms: _586  and  _587
REMARK  240  A    between atoms: _586  and  _589
REMARK  241  A    between atoms: _589  and  _590
REMARK  242  A    between atoms: _595  and  _597
REMARK  243  A    between atoms: _597  and  _598
REMARK  244  A    between atoms: _597  and  _600
REMARK  245  A    between atoms: _600  and  _601
REMARK  246  A    between atoms: _603  and  _605
REMARK  247  A    between atoms: _605  and  _606
REMARK  248  A    between atoms: _605  and  _608
REMARK  249  A    between atoms: _608  and  _609
REMARK  250  A    between atoms: _615  and  _617
REMARK  251  A    between atoms: _617  and  _618
REMARK  252  A    between atoms: _617  and  _620
REMARK  253  A    between atoms: _620  and  _621
REMARK  254  A    between atoms: _623  and  _625
REMARK  255  A    between atoms: _625  and  _626
REMARK  256  A    between atoms: _625  and  _628
REMARK  257  A    between atoms: _628  and  _629
REMARK  258  A    between atoms: _635  and  _637
REMARK  259  A    between atoms: _637  and  _638
REMARK  260  A    between atoms: _637  and  _640
REMARK  261  A    between atoms: _640  and  _641
REMARK  262  A    between atoms: _643  and  _645
REMARK  263  A    between atoms: _645  and  _646
REMARK  264  A    between atoms: _645  and  _648
REMARK  265  A    between atoms: _648  and  _649
REMARK  266  A    between atoms: _654  and  _656
REMARK  267  A    between atoms: _656  and  _657
REMARK  268  A    between atoms: _656  and  _659
REMARK  269  A    between atoms: _659  and  _660
REMARK  270  A    between atoms: _663  and  _665
REMARK  271  A    between atoms: _665  and  _666
REMARK  272  A    between atoms: _665  and  _668
REMARK  273  A    between atoms: _668  and  _669
REMARK  274  A    between atoms: _672  and  _674
REMARK  275  A    between atoms: _674  and  _675
REMARK  276  A    between atoms: _674  and  _677
REMARK  277  A    between atoms: _677  and  _678
REMARK  278  A    between atoms: _678  and  _679
REMARK  279  A    between atoms: _684  and  _686
REMARK  280  A    between atoms: _686  and  _687
REMARK  281  A    between atoms: _690  and  _692
REMARK  282  A    between atoms: _692  and  _693
REMARK  283  A    between atoms: _692  and  _695
REMARK  284  A    between atoms: _698  and  _700
REMARK  285  A    between atoms: _700  and  _701
REMARK  286  A    between atoms: _700  and  _703
REMARK  287  A    between atoms: _703  and  _704
REMARK  288  A    between atoms: _707  and  _709
REMARK  289  A    between atoms: _709  and  _710
REMARK  290  A    between atoms: _709  and  _712
REMARK  291  A    between atoms: _712  and  _713
REMARK  292  A    between atoms: _713  and  _714
REMARK  293  A    between atoms: _714  and  _715
REMARK  294  A    between atoms: _724  and  _726
REMARK  295  A    between atoms: _726  and  _727
REMARK  296  A    between atoms: _726  and  _729
REMARK  297  A    between atoms: _729  and  _730
REMARK  298  A    between atoms: _730  and  _731
REMARK  299  A    between atoms: _731  and  _732
REMARK  300  A    between atoms: _732  and  _733
REMARK                            x       y       z     vdW  Elec       q    Type
REMARK                         _______ _______ _______ _____ _____    ______ ____
ROOT
ATOM      1  C   GLY A   4     109.047  15.592  15.335  0.00  0.00    +0.243 C 
ATOM      2  N   ALA A   5     109.688  16.268  16.292  0.00  0.00    -0.297 N 
ATOM      3  H   ALA A   5     109.163  16.540  17.148  0.00  0.00    +0.150 HD
ATOM      4  O   GLY A   4     109.605  15.186  14.299  0.00  0.00    -0.273 OA
ENDROOT
BRANCH   2   5
ATOM      5  CA  ALA A   5     111.106  16.644  16.186  0.00  0.00    +0.149 C 
ATOM      6  CB  ALA A   5     111.313  17.788  15.187  0.00  0.00    +0.031 C 
BRANCH   5   7
ATOM      7  C   ALA A   5     111.514  17.120  17.572  0.00  0.00    +0.241 C 
ATOM      8  O   ALA A   5     110.638  17.375  18.438  0.00  0.00    -0.273 OA
ATOM      9  N   MET A   6     112.820  17.281  17.779  0.00  0.00    -0.297 N 
ATOM     10  H   MET A   6     113.484  17.078  17.005  0.00  0.00    +0.150 HD
BRANCH   9  11
ATOM     11  CA  MET A   6     113.347  17.737  19.071  0.00  0.00    +0.149 C 
BRANCH  11  12
ATOM     12  C   MET A   6     114.574  18.630  18.869  0.00  0.00    +0.241 C 
ATOM     13  N   GLU A   7     114.548  19.804  19.506  0.00  0.00    -0.297 N 
ATOM     14  H   GLU A   7     113.860  19.947  20.273  0.00  0.00    +0.150 HD
ATOM     15  O   MET A   6     115.503  18.273  18.137  0.00  0.00    -0.273 OA
BRANCH  13  16
ATOM     16  CA  GLU A   7     115.460  20.896  19.156  0.00  0.00    +0.149 C 
BRANCH  16  17
ATOM     17  C   GLU A   7     116.838  20.781  19.807  0.00  0.00    +0.241 C 
ATOM     18  O   GLU A   7     117.476  21.821  20.084  0.00  0.00    -0.273 OA
ATOM     19  N   ASN A   8     117.303  19.558  20.062  0.00  0.00    -0.298 N 
ATOM     20  H   ASN A   8     116.769  18.722  19.751  0.00  0.00    +0.150 HD
BRANCH  19  21
ATOM     21  CA  ASN A   8     118.590  19.392  20.794  0.00  0.00    +0.146 C 
BRANCH  21  22
ATOM     22  C   ASN A   8     119.659  20.306  20.226  0.00  0.00    +0.227 C 
ATOM     23  O   ASN A   8     119.802  20.407  19.011  0.00  0.00    -0.286 OA
ENDBRANCH  21  22
BRANCH  21  24
ATOM     24  CB  ASN A   8     119.092  17.950  20.789  0.00  0.00    +0.112 C 
BRANCH  24  25
ATOM     25  CG  ASN A   8     117.986  16.941  21.053  0.00  0.00    +0.222 C 
ATOM     26  OD1 ASN A   8     117.435  16.886  22.147  0.00  0.00    -0.275 OA
ATOM     27  ND2 ASN A   8     117.658  16.136  20.031  0.00  0.00    -0.329 N 
ATOM     28 HD21 ASN A   8     116.907  15.427  20.148  0.00  0.00    +0.145 HD
ATOM     29 HD22 ASN A   8     118.155  16.221  19.122  0.00  0.00    +0.145 HD
ENDBRANCH  24  25
ENDBRANCH  21  24
ENDBRANCH  19  21
ENDBRANCH  16  17
BRANCH  16  30
ATOM     30  CB  GLU A   7     114.827  22.249  19.577  0.00  0.00    +0.041 C 
BRANCH  30  31
ATOM     31  CG  GLU A   7     114.661  22.382  21.103  0.00  0.00    +0.116 C 
BRANCH  31  32
ATOM     32  CD  GLU A   7     113.275  22.062  21.607  0.00  0.00    +0.365 C 
ATOM     33  OE2 GLU A   7     112.869  22.589  22.682  0.00  0.00    -0.246 OA
ATOM     34  OE1 GLU A   7     112.564  21.268  20.951  0.00  0.00    -0.246 OA
ENDBRANCH  31  32
ENDBRANCH  30  31
ENDBRANCH  16  30
ENDBRANCH  13  16
ENDBRANCH  11  12
BRANCH  11  35
ATOM     35  CB  MET A   6     113.657  16.560  20.009  0.00  0.00    +0.041 C 
BRANCH  35  36
ATOM     36  CG  MET A   6     114.200  17.002  21.368  0.00  0.00    +0.060 C 
BRANCH  36  37
ATOM     37  SD  MET A   6     113.122  18.125  22.294  0.00  0.00    -0.139 S 
ATOM     38  CE  MET A   6     114.366  19.105  23.176  0.00  0.00    +0.069 C 
ENDBRANCH  36  37
ENDBRANCH  35  36
ENDBRANCH  11  35
ENDBRANCH   9  11
ENDBRANCH   5   7
ENDBRANCH   2   5
BRANCH   1  39
ATOM     39  CA  GLY A   4     107.565  15.346  15.569  0.00  0.00    +0.176 C 
BRANCH  39  41
ATOM     40  C   ALA A   3     107.412  13.690  17.345  0.00  0.00    +0.241 C 
ATOM     41  N   GLY A   4     107.232  14.943  16.927  0.00  0.00    -0.295 N 
ATOM     42  H   GLY A   4     106.845  15.648  17.586  0.00  0.00    +0.150 HD
ATOM     43  O   ALA A   3     107.780  12.786  16.581  0.00  0.00    -0.273 OA
BRANCH  40  44
ATOM     44  CA  ALA A   3     107.124  13.409  18.829  0.00  0.00    +0.149 C 
ATOM     45  CB  ALA A   3     107.580  14.568  19.731  0.00  0.00    +0.031 C 
BRANCH  44  47
ATOM     46  C   ASN A   2     107.161  10.996  19.142  0.00  0.00    +0.241 C 
ATOM     47  N   ALA A   3     107.749  12.173  19.300  0.00  0.00    -0.297 N 
ATOM     48  H   ALA A   3     108.676  12.219  19.770  0.00  0.00    +0.150 HD
ATOM     49  O   ASN A   2     106.086  10.870  18.545  0.00  0.00    -0.273 OA
BRANCH  46  50
ATOM     50  CA  ASN A   2     107.938   9.775  19.655  0.00  0.00    +0.158 C 
BRANCH  50  52
ATOM     51  C   PHE A   1     109.332   9.220  17.676  0.00  0.00    +0.239 C 
ATOM     52  N   ASN A   2     109.241   9.596  18.955  0.00  0.00    -0.297 N 
ATOM     53  H   ASN A   2     110.118   9.771  19.485  0.00  0.00    +0.150 HD
ATOM     54  O   PHE A   1     108.364   9.125  16.915  0.00  0.00    -0.274 OA
BRANCH  51  55
ATOM     55  CA  PHE A   1     110.709   8.897  17.143  0.00  0.00    +0.149 C 
BRANCH  55  56
ATOM     56  N   PHE A   1     110.643   7.609  16.441  0.00  0.00    -0.238 NA
ATOM     57  H   PHE A   1     109.735   7.277  16.058  0.00  0.00    +0.142 HD
ENDBRANCH  55  56
BRANCH  55  58
ATOM     58  CB  PHE A   1     111.199   9.988  16.175  0.00  0.00    +0.053 C 
BRANCH  58  59
ATOM     59  CG  PHE A   1     111.699  11.218  16.876  0.00  0.00    -0.020 A 
ATOM     60  CD2 PHE A   1     112.974  11.220  17.475  0.00  0.00    -0.004 A 
ATOM     61  CE2 PHE A   1     113.435  12.354  18.147  0.00  0.00    -0.000 A 
ATOM     62  CZ  PHE A   1     112.615  13.477  18.243  0.00  0.00    -0.000 A 
ATOM     63  CE1 PHE A   1     111.342  13.473  17.672  0.00  0.00    -0.000 A 
ATOM     64  CD1 PHE A   1     110.893  12.349  16.994  0.00  0.00    -0.004 A 
ENDBRANCH  58  59
ENDBRANCH  55  58
ENDBRANCH  51  55
ENDBRANCH  50  52
BRANCH  50  65
ATOM     65  CB  ASN A   2     108.185   9.822  21.175  0.00  0.00    +0.114 C 
BRANCH  65  66
ATOM     66  CG  ASN A   2     106.920  10.014  22.009  0.00  0.00    +0.222 C 
ATOM     67  ND2 ASN A   2     107.119  10.463  23.254  0.00  0.00    -0.329 N 
ATOM     68 HD21 ASN A   2     106.309  10.615  23.888  0.00  0.00    +0.145 HD
ATOM     69 HD22 ASN A   2     108.084  10.660  23.588  0.00  0.00    +0.145 HD
ATOM     70  OD1 ASN A   2     105.791   9.765  21.565  0.00  0.00    -0.275 OA
ENDBRANCH  65  66
ENDBRANCH  50  65
ENDBRANCH  46  50
ENDBRANCH  44  47
ENDBRANCH  40  44
ENDBRANCH  39  41
ENDBRANCH   1  39
TORSDOF 28
REMARK  Name = ../refined-set-2016/4fys/4fys_pocket.pdb
REMARK  300 active torsions:
REMARK  status: ('A' for Active; 'I' for Inactive)
REMARK    1  A    between atoms: _1  and  _3
REMARK    2  A    between atoms: _3  and  _4
REMARK    3  A    between atoms: _3  and  _6
REMARK    4  A    between atoms: _6  and  _7
REMARK    5  A    between atoms: _7  and  _8
REMARK    6  A    between atoms: _13  and  _15
REMARK    7  A    between atoms: _15  and  _16
REMARK    8  A    between atoms: _15  and  _18
REMARK    9  A    between atoms: _18  and  _19
REMARK   10  A    between atoms: _19  and  _20
REMARK   11  A    between atoms: _22  and  _24
REMARK   12  A    between atoms: _24  and  _25
REMARK   13  A    between atoms: _24  and  _27
REMARK   14  A    between atoms: _27  and  _28
REMARK   15  A    between atoms: _28  and  _29
REMARK   16  A    between atoms: _34  and  _36
REMARK   17  A    between atoms: _36  and  _37
REMARK   18  A    between atoms: _40  and  _42
REMARK   19  A    between atoms: _42  and  _43
REMARK   20  A    between atoms: _42  and  _45
REMARK   21  A    between atoms: _45  and  _46
REMARK   22  A    between atoms: _51  and  _52
REMARK   23  A    between atoms: _54  and  _56
REMARK   24  A    between atoms: _56  and  _57
REMARK   25  A    between atoms: _56  and  _59
REMARK   26  A    between atoms: _59  and  _60
REMARK   27  A    between atoms: _63  and  _65
REMARK   28  A    between atoms: _65  and  _66
REMARK   29  A    between atoms: _65  and  _68
REMARK   30  A    between atoms: _68  and  _69
REMARK   31  A    between atoms: _75  and  _77
REMARK   32  A    between atoms: _77  and  _78
REMARK   33  A    between atoms: _77  and  _80
REMARK   34  A    between atoms: _80  and  _81
REMARK   35  A    between atoms: _86  and  _88
REMARK   36  A    between atoms: _88  and  _89
REMARK   37  A    between atoms: _92  and  _94
REMARK   38  A    between atoms: _94  and  _95
REMARK   39  A    between atoms: _97  and  _99
REMARK   40  A    between atoms: _99  and  _100
REMARK   41  A    between atoms: _103  and  _105
REMARK   42  A    between atoms: _105  and  _106
REMARK   43  A    between atoms: _105  and  _108
REMARK   44  A    between atoms: _108  and  _109
REMARK   45  A    between atoms: _109  and  _110
REMARK   46  A    between atoms: _112  and  _114
REMARK   47  A    between atoms: _114  and  _115
REMARK   48  A    between atoms: _114  and  _117
REMARK   49  A    between atoms: _117  and  _118
REMARK   50  A    between atoms: _118  and  _119
REMARK   51  A    between atoms: _122  and  _124
REMARK   52  A    between atoms: _124  and  _125
REMARK   53  A    between atoms: _124  and  _127
REMARK   54  A    between atoms: _127  and  _128
REMARK   55  A    between atoms: _133  and  _135
REMARK   56  A    between atoms: _135  and  _136
REMARK   57  A    between atoms: _135  and  _138
REMARK   58  A    between atoms: _138  and  _139
REMARK   59  A    between atoms: _142  and  _144
REMARK   60  A    between atoms: _144  and  _145
REMARK   61  A    between atoms: _144  and  _147
REMARK   62  A    between atoms: _147  and  _148
REMARK   63  A    between atoms: _153  and  _154
REMARK   64  A    between atoms: _156  and  _158
REMARK   65  A    between atoms: _158  and  _159
REMARK   66  A    between atoms: _158  and  _161
REMARK   67  A    between atoms: _161  and  _162
REMARK   68  A    between atoms: _162  and  _163
REMARK   69  A    between atoms: _163  and  _164
REMARK   70  A    between atoms: _173  and  _175
REMARK   71  A    between atoms: _175  and  _176
REMARK   72  A    between atoms: _175  and  _178
REMARK   73  A    between atoms: _178  and  _179
REMARK   74  A    between atoms: _184  and  _186
REMARK   75  A    between atoms: _186  and  _187
REMARK   76  A    between atoms: _186  and  _189
REMARK   77  A    between atoms: _189  and  _190
REMARK   78  A    between atoms: _192  and  _194
REMARK   79  A    between atoms: _194  and  _195
REMARK   80  A    between atoms: _194  and  _197
REMARK   81  A    between atoms: _197  and  _198
REMARK   82  A    between atoms: _200  and  _202
REMARK   83  A    between atoms: _202  and  _203
REMARK   84  A    between atoms: _202  and  _205
REMARK   85  A    between atoms: _205  and  _206
REMARK   86  A    between atoms: _206  and  _207
REMARK   87  A    between atoms: _210  and  _212
REMARK   88  A    between atoms: _212  and  _213
REMARK   89  A    between atoms: _212  and  _215
REMARK   90  A    between atoms: _215  and  _216
REMARK   91  A    between atoms: _216  and  _217
REMARK   92  A    between atoms: _217  and  _218
REMARK   93  A    between atoms: _227  and  _229
REMARK   94  A    between atoms: _229  and  _230
REMARK   95  A    between atoms: _229  and  _232
REMARK   96  A    between atoms: _235  and  _237
REMARK   97  A    between atoms: _237  and  _238
REMARK   98  A    between atoms: _237  and  _240
REMARK   99  A    between atoms: _240  and  _241
REMARK  100  A    between atoms: _244  and  _246
REMARK  101  A    between atoms: _246  and  _247
REMARK  102  A    between atoms: _246  and  _249
REMARK  103  A    between atoms: _252  and  _254
REMARK  104  A    between atoms: _254  and  _255
REMARK  105  A    between atoms: _254  and  _257
REMARK  106  A    between atoms: _257  and  _258
REMARK  107  A    between atoms: _261  and  _263
REMARK  108  A    between atoms: _263  and  _264
REMARK  109  A    between atoms: _267  and  _269
REMARK  110  A    between atoms: _269  and  _270
REMARK  111  A    between atoms: _269  and  _272
REMARK  112  A    between atoms: _272  and  _273
REMARK  113  A    between atoms: _278  and  _280
REMARK  114  A    between atoms: _280  and  _281
REMARK  115  A    between atoms: _280  and  _283
REMARK  116  A    between atoms: _283  and  _284
REMARK  117  A    between atoms: _284  and  _285
REMARK  118  A    between atoms: _288  and  _290
REMARK  119  A    between atoms: _290  and  _291
REMARK  120  A    between atoms: _290  and  _293
REMARK  121  A    between atoms: _293  and  _294
REMARK  122  A    between atoms: _299  and  _301
REMARK  123  A    between atoms: _301  and  _302
REMARK  124  A    between atoms: _301  and  _304
REMARK  125  A    between atoms: _304  and  _305
REMARK  126  A    between atoms: _315  and  _317
REMARK  127  A    between atoms: _317  and  _318
REMARK  128  A    between atoms: _317  and  _320
REMARK  129  A    between atoms: _320  and  _321
REMARK  130  A    between atoms: _324  and  _326
REMARK  131  A    between atoms: _326  and  _327
REMARK  132  A    between atoms: _326  and  _329
REMARK  133  A    between atoms: _329  and  _330
REMARK  134  A    between atoms: _335  and  _337
REMARK  135  A    between atoms: _337  and  _338
REMARK  136  A    between atoms: _337  and  _340
REMARK  137  A    between atoms: _340  and  _341
REMARK  138  A    between atoms: _341  and  _342
REMARK  139  A    between atoms: _345  and  _347
REMARK  140  A    between atoms: _347  and  _348
REMARK  141  A    between atoms: _351  and  _353
REMARK  142  A    between atoms: _353  and  _354
REMARK  143  A    between atoms: _353  and  _356
REMARK  144  A    between atoms: _356  and  _357
REMARK  145  A    between atoms: _359  and  _361
REMARK  146  A    between atoms: _361  and  _362
REMARK  147  A    between atoms: _361  and  _364
REMARK  148  A    between atoms: _364  and  _365
REMARK  149  A    between atoms: _365  and  _366
REMARK  150  A    between atoms: _369  and  _371
REMARK  151  A    between atoms: _371  and  _372
REMARK  152  A    between atoms: _371  and  _374
REMARK  153  A    between atoms: _374  and  _375
REMARK  154  A    between atoms: _380  and  _381
REMARK  155  A    between atoms: _383  and  _385
REMARK  156  A    between atoms: _385  and  _386
REMARK  157  A    between atoms: _385  and  _388
REMARK  158  A    between atoms: _388  and  _389
REMARK  159  A    between atoms: _392  and  _394
REMARK  160  A    between atoms: _394  and  _395
REMARK  161  A    between atoms: _394  and  _397
REMARK  162  A    between atoms: _397  and  _398
REMARK  163  A    between atoms: _403  and  _405
REMARK  164  A    between atoms: _405  and  _406
REMARK  165  A    between atoms: _405  and  _408
REMARK  166  A    between atoms: _408  and  _409
REMARK  167  A    between atoms: _412  and  _414
REMARK  168  A    between atoms: _414  and  _415
REMARK  169  A    between atoms: _414  and  _417
REMARK  170  A    between atoms: _417  and  _418
REMARK  171  A    between atoms: _423  and  _424
REMARK  172  A    between atoms: _426  and  _428
REMARK  173  A    between atoms: _428  and  _429
REMARK  174  A    between atoms: _428  and  _431
REMARK  175  A    between atoms: _431  and  _432
REMARK  176  A    between atoms: _432  and  _433
REMARK  177  A    between atoms: _433  and  _434
REMARK  178  A    between atoms: _443  and  _445
REMARK  179  A    between atoms: _445  and  _446
REMARK  180  A    between atoms: _445  and  _448
REMARK  181  A    between atoms: _451  and  _453
REMARK  182  A    between atoms: _453  and  _454
REMARK  183  A    between atoms: _457  and  _459
REMARK  184  A    between atoms: _459  and  _460
REMARK  185  A    between atoms: _459  and  _462
REMARK  186  A    between atoms: _465  and  _467
REMARK  187  A    between atoms: _467  and  _468
REMARK  188  A    between atoms: _467  and  _470
REMARK  189  A    between atoms: _470  and  _471
REMARK  190  A    between atoms: _473  and  _475
REMARK  191  A    between atoms: _475  and  _476
REMARK  192  A    between atoms: _475  and  _478
REMARK  193  A    between atoms: _478  and  _479
REMARK  194  A    between atoms: _479  and  _480
REMARK  195  A    between atoms: _483  and  _485
REMARK  196  A    between atoms: _485  and  _486
REMARK  197  A    between atoms: _485  and  _488
REMARK  198  A    between atoms: _488  and  _489
REMARK  199  A    between atoms: _492  and  _494
REMARK  200  A    between atoms: _494  and  _495
REMARK  201  A    between atoms: _494  and  _497
REMARK  202  A    between atoms: _497  and  _498
REMARK  203  A    between atoms: _504  and  _506
REMARK  204  A    between atoms: _506  and  _507
REMARK  205  A    between atoms: _506  and  _509
REMARK  206  A    between atoms: _509  and  _510
REMARK  207  A    between atoms: _513  and  _515
REMARK  208  A    between atoms: _515  and  _516
REMARK  209  A    between atoms: _519  and  _521
REMARK  210  A    between atoms: _521  and  _522
REMARK  211  A    between atoms: _521  and  _524
REMARK  212  A    between atoms: _524  and  _525
REMARK  213  A    between atoms: _530  and  _531
REMARK  214  A    between atoms: _533  and  _535
REMARK  215  A    between atoms: _535  and  _536
REMARK  216  A    between atoms: _535  and  _538
REMARK  217  A    between atoms: _538  and  _539
REMARK  218  A    between atoms: _541  and  _543
REMARK  219  A    between atoms: _543  and  _544
REMARK  220  A    between atoms: _543  and  _546
REMARK  221  A    between atoms: _546  and  _547
REMARK  222  A    between atoms: _550  and  _552
REMARK  223  A    between atoms: _552  and  _553
REMARK  224  A    between atoms: _552  and  _555
REMARK  225  A    between atoms: _555  and  _556
REMARK  226  A    between atoms: _558  and  _560
REMARK  227  A    between atoms: _560  and  _561
REMARK  228  A    between atoms: _560  and  _563
REMARK  229  A    between atoms: _563  and  _564
REMARK  230  A    between atoms: _567  and  _569
REMARK  231  A    between atoms: _569  and  _570
REMARK  232  A    between atoms: _569  and  _572
REMARK  233  A    between atoms: _572  and  _573
REMARK  234  A    between atoms: _575  and  _577
REMARK  235  A    between atoms: _577  and  _578
REMARK  236  A    between atoms: _577  and  _580
REMARK  237  A    between atoms: _580  and  _581
REMARK  238  A    between atoms: _584  and  _586
REMARK  239  A    between atoms: _586  and  _587
REMARK  240  A    between atoms: _586  and  _589
REMARK  241  A    between atoms: _589  and  _590
REMARK  242  A    between atoms: _595  and  _597
REMARK  243  A    between atoms: _597  and  _598
REMARK  244  A    between atoms: _597  and  _600
REMARK  245  A    between atoms: _600  and  _601
REMARK  246  A    between atoms: _603  and  _605
REMARK  247  A    between atoms: _605  and  _606
REMARK  248  A    between atoms: _605  and  _608
REMARK  249  A    between atoms: _608  and  _609
REMARK  250  A    between atoms: _615  and  _617
REMARK  251  A    between atoms: _617  and  _618
REMARK  252  A    between atoms: _617  and  _620
REMARK  253  A    between atoms: _620  and  _621
REMARK  254  A    between atoms: _623  and  _625
REMARK  255  A    between atoms: _625  and  _626
REMARK  256  A    between atoms: _625  and  _628
REMARK  257  A    between atoms: _628  and  _629
REMARK  258  A    between atoms: _635  and  _637
REMARK  259  A    between atoms: _637  and  _638
REMARK  260  A    between atoms: _637  and  _640
REMARK  261  A    between atoms: _640  and  _641
REMARK  262  A    between atoms: _643  and  _645
REMARK  263  A    between atoms: _645  and  _646
REMARK  264  A    between atoms: _645  and  _648
REMARK  265  A    between atoms: _648  and  _649
REMARK  266  A    between atoms: _654  and  _656
REMARK  267  A    between atoms: _656  and  _657
REMARK  268  A    between atoms: _656  and  _659
REMARK  269  A    between atoms: _659  and  _660
REMARK  270  A    between atoms: _663  and  _665
REMARK  271  A    between atoms: _665  and  _666
REMARK  272  A    between atoms: _665  and  _668
REMARK  273  A    between atoms: _668  and  _669
REMARK  274  A    between atoms: _672  and  _674
REMARK  275  A    between atoms: _674  and  _675
REMARK  276  A    between atoms: _674  and  _677
REMARK  277  A    between atoms: _677  and  _678
REMARK  278  A    between atoms: _678  and  _679
REMARK  279  A    between atoms: _684  and  _686
REMARK  280  A    between atoms: _686  and  _687
REMARK  281  A    between atoms: _690  and  _692
REMARK  282  A    between atoms: _692  and  _693
REMARK  283  A    between atoms: _692  and  _695
REMARK  284  A    between atoms: _698  and  _700
REMARK  285  A    between atoms: _700  and  _701
REMARK  286  A    between atoms: _700  and  _703
REMARK  287  A    between atoms: _703  and  _704
REMARK  288  A    between atoms: _707  and  _709
REMARK  289  A    between atoms: _709  and  _710
REMARK  290  A    between atoms: _709  and  _712
REMARK  291  A    between atoms: _712  and  _713
REMARK  292  A    between atoms: _713  and  _714
REMARK  293  A    between atoms: _714  and  _715
REMARK  294  A    between atoms: _724  and  _726
REMARK  295  A    between atoms: _726  and  _727
REMARK  296  A    between atoms: _726  and  _729
REMARK  297  A    between atoms: _729  and  _730
REMARK  298  A    between atoms: _730  and  _731
REMARK  299  A    between atoms: _731  and  _732
REMARK  300  A    between atoms: _732  and  _733
REMARK                            x       y       z     vdW  Elec       q    Type
REMARK                         _______ _______ _______ _____ _____    ______ ____
ROOT
ATOM      1  CA  TYR A   2     113.138  14.509  13.539  0.00  0.00    +0.153 C 
ENDROOT
BRANCH   1   4
ATOM      2  C   THR A   1     114.850  15.285  15.152  0.00  0.00    +0.241 C 
ATOM      3  O   THR A   1     114.129  16.180  15.622  0.00  0.00    -0.274 OA
ATOM      4  N   TYR A   2     114.451  14.429  14.200  0.00  0.00    -0.297 N 
ATOM      5  H   TYR A   2     115.102  13.670  13.914  0.00  0.00    +0.150 HD
BRANCH   2   6
ATOM      6  CA  THR A   1     116.274  15.124  15.699  0.00  0.00    +0.172 C 
BRANCH   6   7
ATOM      7  N   THR A   1     116.756  16.443  16.159  0.00  0.00    -0.236 NA
ATOM      8  H   THR A   1     116.428  16.807  17.076  0.00  0.00    +0.142 HD
ENDBRANCH   6   7
BRANCH   6   9
ATOM      9  CB  THR A   1     116.229  14.149  16.873  0.00  0.00    +0.135 C 
ATOM     10  CG2 THR A   1     117.673  13.735  17.294  0.00  0.00    +0.034 C 
BRANCH   9  11
ATOM     11  OG1 THR A   1     115.570  14.786  17.989  0.00  0.00    -0.383 OA
ATOM     12  HG1 THR A   1     115.538  14.158  18.754  0.00  0.00    +0.210 HD
ENDBRANCH   9  11
ENDBRANCH   6   9
ENDBRANCH   2   6
ENDBRANCH   1   4
BRANCH   1  13
ATOM     13  C   TYR A   2     112.625  13.102  13.295  0.00  0.00    +0.241 C 
ATOM     14  N   ARG A   3     111.306  12.939  13.287  0.00  0.00    -0.298 N 
ATOM     15  H   ARG A   3     110.689  13.579  13.827  0.00  0.00    +0.150 HD
ATOM     16  O   TYR A   2     113.420  12.187  13.043  0.00  0.00    -0.273 OA
BRANCH  14  17
ATOM     17  CA  ARG A   3     110.735  11.833  12.498  0.00  0.00    +0.137 C 
BRANCH  17  18
ATOM     18  C   ARG A   3     111.220  11.959  11.071  0.00  0.00    +0.227 C 
ATOM     19  O   ARG A   3     111.243  13.066  10.504  0.00  0.00    -0.286 OA
ENDBRANCH  17  18
BRANCH  17  20
ATOM     20  CB  ARG A   3     109.220  11.872  12.485  0.00  0.00    +0.031 C 
BRANCH  20  21
ATOM     21  CG  ARG A   3     108.573  11.387  13.756  0.00  0.00    +0.045 C 
BRANCH  21  22
ATOM     22  CD  ARG A   3     107.059  11.595  13.721  0.00  0.00    +0.174 C 
BRANCH  22  23
ATOM     23  NE  ARG A   3     106.451  11.015  14.926  0.00  0.00    -0.265 N 
ATOM     24  HE  ARG A   3     106.622  11.498  15.831  0.00  0.00    +0.259 HD
ATOM     25  CZ  ARG A   3     105.698   9.919  14.946  0.00  0.00    +0.342 C 
ATOM     26  NH2 ARG A   3     105.197   9.478  16.095  0.00  0.00    -0.292 N 
ATOM     27 HH21 ARG A   3     105.394   9.990  16.979  0.00  0.00    +0.255 HD
ATOM     28 HH22 ARG A   3     104.608   8.621  16.111  0.00  0.00    +0.255 HD
ATOM     29  NH1 ARG A   3     105.413   9.281  13.811  0.00  0.00    -0.292 N 
ATOM     30 HH11 ARG A   3     104.824   8.424  13.830  0.00  0.00    +0.255 HD
ATOM     31 HH12 ARG A   3     105.780   9.640  12.906  0.00  0.00    +0.255 HD
ENDBRANCH  22  23
ENDBRANCH  21  22
ENDBRANCH  20  21
ENDBRANCH  17  20
ENDBRANCH  14  17
ENDBRANCH   1  13
BRANCH   1  32
ATOM     32  CB  TYR A   2     113.254  15.118  12.140  0.00  0.00    +0.055 C 
BRANCH  32  33
ATOM     33  CG  TYR A   2     113.721  16.542  12.083  0.00  0.00    -0.020 A 
ATOM     34  CD2 TYR A   2     115.059  16.872  12.350  0.00  0.00    -0.001 A 
ATOM     35  CE2 TYR A   2     115.490  18.193  12.319  0.00  0.00    +0.036 A 
ATOM     36  CZ  TYR A   2     114.567  19.210  11.988  0.00  0.00    +0.134 A 
ATOM     37  CE1 TYR A   2     113.249  18.902  11.703  0.00  0.00    +0.036 A 
ATOM     38  CD1 TYR A   2     112.833  17.569  11.766  0.00  0.00    -0.001 A 
BRANCH  36  39
ATOM     39  OH  TYR A   2     114.978  20.519  11.934  0.00  0.00    -0.506 OA
ATOM     40  HH  TYR A   2     115.940  20.571  12.162  0.00  0.00    +0.292 HD
ENDBRANCH  36  39
ENDBRANCH  32  33
ENDBRANCH   1  32
TORSDOF 15
REMARK  Name = ../refined-set-2016/4fys/4fys_pocket.pdb
REMARK  300 active torsions:
REMARK  status: ('A' for Active; 'I' for Inactive)
REMARK    1  A    between atoms: _1  and  _3
REMARK    2  A    between atoms: _3  and  _4
REMARK    3  A    between atoms: _3  and  _6
REMARK    4  A    between atoms: _6  and  _7
REMARK    5  A    between atoms: _7  and  _8
REMARK    6  A    between atoms: _13  and  _15
REMARK    7  A    between atoms: _15  and  _16
REMARK    8  A    between atoms: _15  and  _18
REMARK    9  A    between atoms: _18  and  _19
REMARK   10  A    between atoms: _19  and  _20
REMARK   11  A    between atoms: _22  and  _24
REMARK   12  A    between atoms: _24  and  _25
REMARK   13  A    between atoms: _24  and  _27
REMARK   14  A    between atoms: _27  and  _28
REMARK   15  A    between atoms: _28  and  _29
REMARK   16  A    between atoms: _34  and  _36
REMARK   17  A    between atoms: _36  and  _37
REMARK   18  A    between atoms: _40  and  _42
REMARK   19  A    between atoms: _42  and  _43
REMARK   20  A    between atoms: _42  and  _45
REMARK   21  A    between atoms: _45  and  _46
REMARK   22  A    between atoms: _51  and  _52
REMARK   23  A    between atoms: _54  and  _56
REMARK   24  A    between atoms: _56  and  _57
REMARK   25  A    between atoms: _56  and  _59
REMARK   26  A    between atoms: _59  and  _60
REMARK   27  A    between atoms: _63  and  _65
REMARK   28  A    between atoms: _65  and  _66
REMARK   29  A    between atoms: _65  and  _68
REMARK   30  A    between atoms: _68  and  _69
REMARK   31  A    between atoms: _75  and  _77
REMARK   32  A    between atoms: _77  and  _78
REMARK   33  A    between atoms: _77  and  _80
REMARK   34  A    between atoms: _80  and  _81
REMARK   35  A    between atoms: _86  and  _88
REMARK   36  A    between atoms: _88  and  _89
REMARK   37  A    between atoms: _92  and  _94
REMARK   38  A    between atoms: _94  and  _95
REMARK   39  A    between atoms: _97  and  _99
REMARK   40  A    between atoms: _99  and  _100
REMARK   41  A    between atoms: _103  and  _105
REMARK   42  A    between atoms: _105  and  _106
REMARK   43  A    between atoms: _105  and  _108
REMARK   44  A    between atoms: _108  and  _109
REMARK   45  A    between atoms: _109  and  _110
REMARK   46  A    between atoms: _112  and  _114
REMARK   47  A    between atoms: _114  and  _115
REMARK   48  A    between atoms: _114  and  _117
REMARK   49  A    between atoms: _117  and  _118
REMARK   50  A    between atoms: _118  and  _119
REMARK   51  A    between atoms: _122  and  _124
REMARK   52  A    between atoms: _124  and  _125
REMARK   53  A    between atoms: _124  and  _127
REMARK   54  A    between atoms: _127  and  _128
REMARK   55  A    between atoms: _133  and  _135
REMARK   56  A    between atoms: _135  and  _136
REMARK   57  A    between atoms: _135  and  _138
REMARK   58  A    between atoms: _138  and  _139
REMARK   59  A    between atoms: _142  and  _144
REMARK   60  A    between atoms: _144  and  _145
REMARK   61  A    between atoms: _144  and  _147
REMARK   62  A    between atoms: _147  and  _148
REMARK   63  A    between atoms: _153  and  _154
REMARK   64  A    between atoms: _156  and  _158
REMARK   65  A    between atoms: _158  and  _159
REMARK   66  A    between atoms: _158  and  _161
REMARK   67  A    between atoms: _161  and  _162
REMARK   68  A    between atoms: _162  and  _163
REMARK   69  A    between atoms: _163  and  _164
REMARK   70  A    between atoms: _173  and  _175
REMARK   71  A    between atoms: _175  and  _176
REMARK   72  A    between atoms: _175  and  _178
REMARK   73  A    between atoms: _178  and  _179
REMARK   74  A    between atoms: _184  and  _186
REMARK   75  A    between atoms: _186  and  _187
REMARK   76  A    between atoms: _186  and  _189
REMARK   77  A    between atoms: _189  and  _190
REMARK   78  A    between atoms: _192  and  _194
REMARK   79  A    between atoms: _194  and  _195
REMARK   80  A    between atoms: _194  and  _197
REMARK   81  A    between atoms: _197  and  _198
REMARK   82  A    between atoms: _200  and  _202
REMARK   83  A    between atoms: _202  and  _203
REMARK   84  A    between atoms: _202  and  _205
REMARK   85  A    between atoms: _205  and  _206
REMARK   86  A    between atoms: _206  and  _207
REMARK   87  A    between atoms: _210  and  _212
REMARK   88  A    between atoms: _212  and  _213
REMARK   89  A    between atoms: _212  and  _215
REMARK   90  A    between atoms: _215  and  _216
REMARK   91  A    between atoms: _216  and  _217
REMARK   92  A    between atoms: _217  and  _218
REMARK   93  A    between atoms: _227  and  _229
REMARK   94  A    between atoms: _229  and  _230
REMARK   95  A    between atoms: _229  and  _232
REMARK   96  A    between atoms: _235  and  _237
REMARK   97  A    between atoms: _237  and  _238
REMARK   98  A    between atoms: _237  and  _240
REMARK   99  A    between atoms: _240  and  _241
REMARK  100  A    between atoms: _244  and  _246
REMARK  101  A    between atoms: _246  and  _247
REMARK  102  A    between atoms: _246  and  _249
REMARK  103  A    between atoms: _252  and  _254
REMARK  104  A    between atoms: _254  and  _255
REMARK  105  A    between atoms: _254  and  _257
REMARK  106  A    between atoms: _257  and  _258
REMARK  107  A    between atoms: _261  and  _263
REMARK  108  A    between atoms: _263  and  _264
REMARK  109  A    between atoms: _267  and  _269
REMARK  110  A    between atoms: _269  and  _270
REMARK  111  A    between atoms: _269  and  _272
REMARK  112  A    between atoms: _272  and  _273
REMARK  113  A    between atoms: _278  and  _280
REMARK  114  A    between atoms: _280  and  _281
REMARK  115  A    between atoms: _280  and  _283
REMARK  116  A    between atoms: _283  and  _284
REMARK  117  A    between atoms: _284  and  _285
REMARK  118  A    between atoms: _288  and  _290
REMARK  119  A    between atoms: _290  and  _291
REMARK  120  A    between atoms: _290  and  _293
REMARK  121  A    between atoms: _293  and  _294
REMARK  122  A    between atoms: _299  and  _301
REMARK  123  A    between atoms: _301  and  _302
REMARK  124  A    between atoms: _301  and  _304
REMARK  125  A    between atoms: _304  and  _305
REMARK  126  A    between atoms: _315  and  _317
REMARK  127  A    between atoms: _317  and  _318
REMARK  128  A    between atoms: _317  and  _320
REMARK  129  A    between atoms: _320  and  _321
REMARK  130  A    between atoms: _324  and  _326
REMARK  131  A    between atoms: _326  and  _327
REMARK  132  A    between atoms: _326  and  _329
REMARK  133  A    between atoms: _329  and  _330
REMARK  134  A    between atoms: _335  and  _337
REMARK  135  A    between atoms: _337  and  _338
REMARK  136  A    between atoms: _337  and  _340
REMARK  137  A    between atoms: _340  and  _341
REMARK  138  A    between atoms: _341  and  _342
REMARK  139  A    between atoms: _345  and  _347
REMARK  140  A    between atoms: _347  and  _348
REMARK  141  A    between atoms: _351  and  _353
REMARK  142  A    between atoms: _353  and  _354
REMARK  143  A    between atoms: _353  and  _356
REMARK  144  A    between atoms: _356  and  _357
REMARK  145  A    between atoms: _359  and  _361
REMARK  146  A    between atoms: _361  and  _362
REMARK  147  A    between atoms: _361  and  _364
REMARK  148  A    between atoms: _364  and  _365
REMARK  149  A    between atoms: _365  and  _366
REMARK  150  A    between atoms: _369  and  _371
REMARK  151  A    between atoms: _371  and  _372
REMARK  152  A    between atoms: _371  and  _374
REMARK  153  A    between atoms: _374  and  _375
REMARK  154  A    between atoms: _380  and  _381
REMARK  155  A    between atoms: _383  and  _385
REMARK  156  A    between atoms: _385  and  _386
REMARK  157  A    between atoms: _385  and  _388
REMARK  158  A    between atoms: _388  and  _389
REMARK  159  A    between atoms: _392  and  _394
REMARK  160  A    between atoms: _394  and  _395
REMARK  161  A    between atoms: _394  and  _397
REMARK  162  A    between atoms: _397  and  _398
REMARK  163  A    between atoms: _403  and  _405
REMARK  164  A    between atoms: _405  and  _406
REMARK  165  A    between atoms: _405  and  _408
REMARK  166  A    between atoms: _408  and  _409
REMARK  167  A    between atoms: _412  and  _414
REMARK  168  A    between atoms: _414  and  _415
REMARK  169  A    between atoms: _414  and  _417
REMARK  170  A    between atoms: _417  and  _418
REMARK  171  A    between atoms: _423  and  _424
REMARK  172  A    between atoms: _426  and  _428
REMARK  173  A    between atoms: _428  and  _429
REMARK  174  A    between atoms: _428  and  _431
REMARK  175  A    between atoms: _431  and  _432
REMARK  176  A    between atoms: _432  and  _433
REMARK  177  A    between atoms: _433  and  _434
REMARK  178  A    between atoms: _443  and  _445
REMARK  179  A    between atoms: _445  and  _446
REMARK  180  A    between atoms: _445  and  _448
REMARK  181  A    between atoms: _451  and  _453
REMARK  182  A    between atoms: _453  and  _454
REMARK  183  A    between atoms: _457  and  _459
REMARK  184  A    between atoms: _459  and  _460
REMARK  185  A    between atoms: _459  and  _462
REMARK  186  A    between atoms: _465  and  _467
REMARK  187  A    between atoms: _467  and  _468
REMARK  188  A    between atoms: _467  and  _470
REMARK  189  A    between atoms: _470  and  _471
REMARK  190  A    between atoms: _473  and  _475
REMARK  191  A    between atoms: _475  and  _476
REMARK  192  A    between atoms: _475  and  _478
REMARK  193  A    between atoms: _478  and  _479
REMARK  194  A    between atoms: _479  and  _480
REMARK  195  A    between atoms: _483  and  _485
REMARK  196  A    between atoms: _485  and  _486
REMARK  197  A    between atoms: _485  and  _488
REMARK  198  A    between atoms: _488  and  _489
REMARK  199  A    between atoms: _492  and  _494
REMARK  200  A    between atoms: _494  and  _495
REMARK  201  A    between atoms: _494  and  _497
REMARK  202  A    between atoms: _497  and  _498
REMARK  203  A    between atoms: _504  and  _506
REMARK  204  A    between atoms: _506  and  _507
REMARK  205  A    between atoms: _506  and  _509
REMARK  206  A    between atoms: _509  and  _510
REMARK  207  A    between atoms: _513  and  _515
REMARK  208  A    between atoms: _515  and  _516
REMARK  209  A    between atoms: _519  and  _521
REMARK  210  A    between atoms: _521  and  _522
REMARK  211  A    between atoms: _521  and  _524
REMARK  212  A    between atoms: _524  and  _525
REMARK  213  A    between atoms: _530  and  _531
REMARK  214  A    between atoms: _533  and  _535
REMARK  215  A    between atoms: _535  and  _536
REMARK  216  A    between atoms: _535  and  _538
REMARK  217  A    between atoms: _538  and  _539
REMARK  218  A    between atoms: _541  and  _543
REMARK  219  A    between atoms: _543  and  _544
REMARK  220  A    between atoms: _543  and  _546
REMARK  221  A    between atoms: _546  and  _547
REMARK  222  A    between atoms: _550  and  _552
REMARK  223  A    between atoms: _552  and  _553
REMARK  224  A    between atoms: _552  and  _555
REMARK  225  A    between atoms: _555  and  _556
REMARK  226  A    between atoms: _558  and  _560
REMARK  227  A    between atoms: _560  and  _561
REMARK  228  A    between atoms: _560  and  _563
REMARK  229  A    between atoms: _563  and  _564
REMARK  230  A    between atoms: _567  and  _569
REMARK  231  A    between atoms: _569  and  _570
REMARK  232  A    between atoms: _569  and  _572
REMARK  233  A    between atoms: _572  and  _573
REMARK  234  A    between atoms: _575  and  _577
REMARK  235  A    between atoms: _577  and  _578
REMARK  236  A    between atoms: _577  and  _580
REMARK  237  A    between atoms: _580  and  _581
REMARK  238  A    between atoms: _584  and  _586
REMARK  239  A    between atoms: _586  and  _587
REMARK  240  A    between atoms: _586  and  _589
REMARK  241  A    between atoms: _589  and  _590
REMARK  242  A    between atoms: _595  and  _597
REMARK  243  A    between atoms: _597  and  _598
REMARK  244  A    between atoms: _597  and  _600
REMARK  245  A    between atoms: _600  and  _601
REMARK  246  A    between atoms: _603  and  _605
REMARK  247  A    between atoms: _605  and  _606
REMARK  248  A    between atoms: _605  and  _608
REMARK  249  A    between atoms: _608  and  _609
REMARK  250  A    between atoms: _615  and  _617
REMARK  251  A    between atoms: _617  and  _618
REMARK  252  A    between atoms: _617  and  _620
REMARK  253  A    between atoms: _620  and  _621
REMARK  254  A    between atoms: _623  and  _625
REMARK  255  A    between atoms: _625  and  _626
REMARK  256  A    between atoms: _625  and  _628
REMARK  257  A    between atoms: _628  and  _629
REMARK  258  A    between atoms: _635  and  _637
REMARK  259  A    between atoms: _637  and  _638
REMARK  260  A    between atoms: _637  and  _640
REMARK  261  A    between atoms: _640  and  _641
REMARK  262  A    between atoms: _643  and  _645
REMARK  263  A    between atoms: _645  and  _646
REMARK  264  A    between atoms: _645  and  _648
REMARK  265  A    between atoms: _648  and  _649
REMARK  266  A    between atoms: _654  and  _656
REMARK  267  A    between atoms: _656  and  _657
REMARK  268  A    between atoms: _656  and  _659
REMARK  269  A    between atoms: _659  and  _660
REMARK  270  A    between atoms: _663  and  _665
REMARK  271  A    between atoms: _665  and  _666
REMARK  272  A    between atoms: _665  and  _668
REMARK  273  A    between atoms: _668  and  _669
REMARK  274  A    between atoms: _672  and  _674
REMARK  275  A    between atoms: _674  and  _675
REMARK  276  A    between atoms: _674  and  _677
REMARK  277  A    between atoms: _677  and  _678
REMARK  278  A    between atoms: _678  and  _679
REMARK  279  A    between atoms: _684  and  _686
REMARK  280  A    between atoms: _686  and  _687
REMARK  281  A    between atoms: _690  and  _692
REMARK  282  A    between atoms: _692  and  _693
REMARK  283  A    between atoms: _692  and  _695
REMARK  284  A    between atoms: _698  and  _700
REMARK  285  A    between atoms: _700  and  _701
REMARK  286  A    between atoms: _700  and  _703
REMARK  287  A    between atoms: _703  and  _704
REMARK  288  A    between atoms: _707  and  _709
REMARK  289  A    between atoms: _709  and  _710
REMARK  290  A    between atoms: _709  and  _712
REMARK  291  A    between atoms: _712  and  _713
REMARK  292  A    between atoms: _713  and  _714
REMARK  293  A    between atoms: _714  and  _715
REMARK  294  A    between atoms: _724  and  _726
REMARK  295  A    between atoms: _726  and  _727
REMARK  296  A    between atoms: _726  and  _729
REMARK  297  A    between atoms: _729  and  _730
REMARK  298  A    between atoms: _730  and  _731
REMARK  299  A    between atoms: _731  and  _732
REMARK  300  A    between atoms: _732  and  _733
REMARK                            x       y       z     vdW  Elec       q    Type
REMARK                         _______ _______ _______ _____ _____    ______ ____
ROOT
ATOM      1  C   ASN A   1     108.467  13.534   7.853  0.00  0.00    +0.239 C 
ATOM      2  N   SER A   2     109.147  14.140   8.832  0.00  0.00    -0.296 N 
ATOM      3  H   SER A   2     109.700  13.561   9.496  0.00  0.00    +0.150 HD
ATOM      4  O   ASN A   1     107.843  14.129   6.984  0.00  0.00    -0.274 OA
ENDROOT
BRANCH   1   5
ATOM      5  CA  ASN A   1     108.490  12.025   7.850  0.00  0.00    +0.154 C 
BRANCH   5   6
ATOM      6  N   ASN A   1     109.629  11.432   8.581  0.00  0.00    -0.238 NA
ATOM      7  H   ASN A   1     109.428  10.883   9.441  0.00  0.00    +0.142 HD
ENDBRANCH   5   6
BRANCH   5   8
ATOM      8  CB  ASN A   1     107.099  11.394   8.237  0.00  0.00    +0.111 C 
BRANCH   8   9
ATOM      9  CG  ASN A   1     106.397  12.040   9.461  0.00  0.00    +0.221 C 
ATOM     10  OD1 ASN A   1     106.843  13.028  10.036  0.00  0.00    -0.275 OA
ATOM     11  ND2 ASN A   1     105.260  11.447   9.859  0.00  0.00    -0.329 N 
ATOM     12 HD21 ASN A   1     104.734  11.824  10.673  0.00  0.00    +0.145 HD
ATOM     13 HD22 ASN A   1     104.905  10.611   9.353  0.00  0.00    +0.145 HD
ENDBRANCH   8   9
ENDBRANCH   5   8
ENDBRANCH   1   5
BRANCH   2  14
ATOM     14  CA  SER A   2     109.135  15.582   8.995  0.00  0.00    +0.166 C 
BRANCH  14  15
ATOM     15  C   SER A   2     110.413  16.287   8.542  0.00  0.00    +0.229 C 
ATOM     16  O   SER A   2     110.525  17.497   8.718  0.00  0.00    -0.286 OA
ENDBRANCH  14  15
BRANCH  14  17
ATOM     17  CB  SER A   2     108.877  15.960  10.448  0.00  0.00    +0.165 C 
BRANCH  17  18
ATOM     18  OG  SER A   2     107.754  15.262  10.938  0.00  0.00    -0.380 OA
ATOM     19  H   SER A   2     107.921  14.288  10.880  0.00  0.00    +0.211 HD
ENDBRANCH  17  18
ENDBRANCH  14  17
ENDBRANCH   2  14
TORSDOF 8
REMARK  Name = ../refined-set-2016/4fys/4fys_pocket.pdb
REMARK  300 active torsions:
REMARK  status: ('A' for Active; 'I' for Inactive)
REMARK    1  A    between atoms: _1  and  _3
REMARK    2  A    between atoms: _3  and  _4
REMARK    3  A    between atoms: _3  and  _6
REMARK    4  A    between atoms: _6  and  _7
REMARK    5  A    between atoms: _7  and  _8
REMARK    6  A    between atoms: _13  and  _15
REMARK    7  A    between atoms: _15  and  _16
REMARK    8  A    between atoms: _15  and  _18
REMARK    9  A    between atoms: _18  and  _19
REMARK   10  A    between atoms: _19  and  _20
REMARK   11  A    between atoms: _22  and  _24
REMARK   12  A    between atoms: _24  and  _25
REMARK   13  A    between atoms: _24  and  _27
REMARK   14  A    between atoms: _27  and  _28
REMARK   15  A    between atoms: _28  and  _29
REMARK   16  A    between atoms: _34  and  _36
REMARK   17  A    between atoms: _36  and  _37
REMARK   18  A    between atoms: _40  and  _42
REMARK   19  A    between atoms: _42  and  _43
REMARK   20  A    between atoms: _42  and  _45
REMARK   21  A    between atoms: _45  and  _46
REMARK   22  A    between atoms: _51  and  _52
REMARK   23  A    between atoms: _54  and  _56
REMARK   24  A    between atoms: _56  and  _57
REMARK   25  A    between atoms: _56  and  _59
REMARK   26  A    between atoms: _59  and  _60
REMARK   27  A    between atoms: _63  and  _65
REMARK   28  A    between atoms: _65  and  _66
REMARK   29  A    between atoms: _65  and  _68
REMARK   30  A    between atoms: _68  and  _69
REMARK   31  A    between atoms: _75  and  _77
REMARK   32  A    between atoms: _77  and  _78
REMARK   33  A    between atoms: _77  and  _80
REMARK   34  A    between atoms: _80  and  _81
REMARK   35  A    between atoms: _86  and  _88
REMARK   36  A    between atoms: _88  and  _89
REMARK   37  A    between atoms: _92  and  _94
REMARK   38  A    between atoms: _94  and  _95
REMARK   39  A    between atoms: _97  and  _99
REMARK   40  A    between atoms: _99  and  _100
REMARK   41  A    between atoms: _103  and  _105
REMARK   42  A    between atoms: _105  and  _106
REMARK   43  A    between atoms: _105  and  _108
REMARK   44  A    between atoms: _108  and  _109
REMARK   45  A    between atoms: _109  and  _110
REMARK   46  A    between atoms: _112  and  _114
REMARK   47  A    between atoms: _114  and  _115
REMARK   48  A    between atoms: _114  and  _117
REMARK   49  A    between atoms: _117  and  _118
REMARK   50  A    between atoms: _118  and  _119
REMARK   51  A    between atoms: _122  and  _124
REMARK   52  A    between atoms: _124  and  _125
REMARK   53  A    between atoms: _124  and  _127
REMARK   54  A    between atoms: _127  and  _128
REMARK   55  A    between atoms: _133  and  _135
REMARK   56  A    between atoms: _135  and  _136
REMARK   57  A    between atoms: _135  and  _138
REMARK   58  A    between atoms: _138  and  _139
REMARK   59  A    between atoms: _142  and  _144
REMARK   60  A    between atoms: _144  and  _145
REMARK   61  A    between atoms: _144  and  _147
REMARK   62  A    between atoms: _147  and  _148
REMARK   63  A    between atoms: _153  and  _154
REMARK   64  A    between atoms: _156  and  _158
REMARK   65  A    between atoms: _158  and  _159
REMARK   66  A    between atoms: _158  and  _161
REMARK   67  A    between atoms: _161  and  _162
REMARK   68  A    between atoms: _162  and  _163
REMARK   69  A    between atoms: _163  and  _164
REMARK   70  A    between atoms: _173  and  _175
REMARK   71  A    between atoms: _175  and  _176
REMARK   72  A    between atoms: _175  and  _178
REMARK   73  A    between atoms: _178  and  _179
REMARK   74  A    between atoms: _184  and  _186
REMARK   75  A    between atoms: _186  and  _187
REMARK   76  A    between atoms: _186  and  _189
REMARK   77  A    between atoms: _189  and  _190
REMARK   78  A    between atoms: _192  and  _194
REMARK   79  A    between atoms: _194  and  _195
REMARK   80  A    between atoms: _194  and  _197
REMARK   81  A    between atoms: _197  and  _198
REMARK   82  A    between atoms: _200  and  _202
REMARK   83  A    between atoms: _202  and  _203
REMARK   84  A    between atoms: _202  and  _205
REMARK   85  A    between atoms: _205  and  _206
REMARK   86  A    between atoms: _206  and  _207
REMARK   87  A    between atoms: _210  and  _212
REMARK   88  A    between atoms: _212  and  _213
REMARK   89  A    between atoms: _212  and  _215
REMARK   90  A    between atoms: _215  and  _216
REMARK   91  A    between atoms: _216  and  _217
REMARK   92  A    between atoms: _217  and  _218
REMARK   93  A    between atoms: _227  and  _229
REMARK   94  A    between atoms: _229  and  _230
REMARK   95  A    between atoms: _229  and  _232
REMARK   96  A    between atoms: _235  and  _237
REMARK   97  A    between atoms: _237  and  _238
REMARK   98  A    between atoms: _237  and  _240
REMARK   99  A    between atoms: _240  and  _241
REMARK  100  A    between atoms: _244  and  _246
REMARK  101  A    between atoms: _246  and  _247
REMARK  102  A    between atoms: _246  and  _249
REMARK  103  A    between atoms: _252  and  _254
REMARK  104  A    between atoms: _254  and  _255
REMARK  105  A    between atoms: _254  and  _257
REMARK  106  A    between atoms: _257  and  _258
REMARK  107  A    between atoms: _261  and  _263
REMARK  108  A    between atoms: _263  and  _264
REMARK  109  A    between atoms: _267  and  _269
REMARK  110  A    between atoms: _269  and  _270
REMARK  111  A    between atoms: _269  and  _272
REMARK  112  A    between atoms: _272  and  _273
REMARK  113  A    between atoms: _278  and  _280
REMARK  114  A    between atoms: _280  and  _281
REMARK  115  A    between atoms: _280  and  _283
REMARK  116  A    between atoms: _283  and  _284
REMARK  117  A    between atoms: _284  and  _285
REMARK  118  A    between atoms: _288  and  _290
REMARK  119  A    between atoms: _290  and  _291
REMARK  120  A    between atoms: _290  and  _293
REMARK  121  A    between atoms: _293  and  _294
REMARK  122  A    between atoms: _299  and  _301
REMARK  123  A    between atoms: _301  and  _302
REMARK  124  A    between atoms: _301  and  _304
REMARK  125  A    between atoms: _304  and  _305
REMARK  126  A    between atoms: _315  and  _317
REMARK  127  A    between atoms: _317  and  _318
REMARK  128  A    between atoms: _317  and  _320
REMARK  129  A    between atoms: _320  and  _321
REMARK  130  A    between atoms: _324  and  _326
REMARK  131  A    between atoms: _326  and  _327
REMARK  132  A    between atoms: _326  and  _329
REMARK  133  A    between atoms: _329  and  _330
REMARK  134  A    between atoms: _335  and  _337
REMARK  135  A    between atoms: _337  and  _338
REMARK  136  A    between atoms: _337  and  _340
REMARK  137  A    between atoms: _340  and  _341
REMARK  138  A    between atoms: _341  and  _342
REMARK  139  A    between atoms: _345  and  _347
REMARK  140  A    between atoms: _347  and  _348
REMARK  141  A    between atoms: _351  and  _353
REMARK  142  A    between atoms: _353  and  _354
REMARK  143  A    between atoms: _353  and  _356
REMARK  144  A    between atoms: _356  and  _357
REMARK  145  A    between atoms: _359  and  _361
REMARK  146  A    between atoms: _361  and  _362
REMARK  147  A    between atoms: _361  and  _364
REMARK  148  A    between atoms: _364  and  _365
REMARK  149  A    between atoms: _365  and  _366
REMARK  150  A    between atoms: _369  and  _371
REMARK  151  A    between atoms: _371  and  _372
REMARK  152  A    between atoms: _371  and  _374
REMARK  153  A    between atoms: _374  and  _375
REMARK  154  A    between atoms: _380  and  _381
REMARK  155  A    between atoms: _383  and  _385
REMARK  156  A    between atoms: _385  and  _386
REMARK  157  A    between atoms: _385  and  _388
REMARK  158  A    between atoms: _388  and  _389
REMARK  159  A    between atoms: _392  and  _394
REMARK  160  A    between atoms: _394  and  _395
REMARK  161  A    between atoms: _394  and  _397
REMARK  162  A    between atoms: _397  and  _398
REMARK  163  A    between atoms: _403  and  _405
REMARK  164  A    between atoms: _405  and  _406
REMARK  165  A    between atoms: _405  and  _408
REMARK  166  A    between atoms: _408  and  _409
REMARK  167  A    between atoms: _412  and  _414
REMARK  168  A    between atoms: _414  and  _415
REMARK  169  A    between atoms: _414  and  _417
REMARK  170  A    between atoms: _417  and  _418
REMARK  171  A    between atoms: _423  and  _424
REMARK  172  A    between atoms: _426  and  _428
REMARK  173  A    between atoms: _428  and  _429
REMARK  174  A    between atoms: _428  and  _431
REMARK  175  A    between atoms: _431  and  _432
REMARK  176  A    between atoms: _432  and  _433
REMARK  177  A    between atoms: _433  and  _434
REMARK  178  A    between atoms: _443  and  _445
REMARK  179  A    between atoms: _445  and  _446
REMARK  180  A    between atoms: _445  and  _448
REMARK  181  A    between atoms: _451  and  _453
REMARK  182  A    between atoms: _453  and  _454
REMARK  183  A    between atoms: _457  and  _459
REMARK  184  A    between atoms: _459  and  _460
REMARK  185  A    between atoms: _459  and  _462
REMARK  186  A    between atoms: _465  and  _467
REMARK  187  A    between atoms: _467  and  _468
REMARK  188  A    between atoms: _467  and  _470
REMARK  189  A    between atoms: _470  and  _471
REMARK  190  A    between atoms: _473  and  _475
REMARK  191  A    between atoms: _475  and  _476
REMARK  192  A    between atoms: _475  and  _478
REMARK  193  A    between atoms: _478  and  _479
REMARK  194  A    between atoms: _479  and  _480
REMARK  195  A    between atoms: _483  and  _485
REMARK  196  A    between atoms: _485  and  _486
REMARK  197  A    between atoms: _485  and  _488
REMARK  198  A    between atoms: _488  and  _489
REMARK  199  A    between atoms: _492  and  _494
REMARK  200  A    between atoms: _494  and  _495
REMARK  201  A    between atoms: _494  and  _497
REMARK  202  A    between atoms: _497  and  _498
REMARK  203  A    between atoms: _504  and  _506
REMARK  204  A    between atoms: _506  and  _507
REMARK  205  A    between atoms: _506  and  _509
REMARK  206  A    between atoms: _509  and  _510
REMARK  207  A    between atoms: _513  and  _515
REMARK  208  A    between atoms: _515  and  _516
REMARK  209  A    between atoms: _519  and  _521
REMARK  210  A    between atoms: _521  and  _522
REMARK  211  A    between atoms: _521  and  _524
REMARK  212  A    between atoms: _524  and  _525
REMARK  213  A    between atoms: _530  and  _531
REMARK  214  A    between atoms: _533  and  _535
REMARK  215  A    between atoms: _535  and  _536
REMARK  216  A    between atoms: _535  and  _538
REMARK  217  A    between atoms: _538  and  _539
REMARK  218  A    between atoms: _541  and  _543
REMARK  219  A    between atoms: _543  and  _544
REMARK  220  A    between atoms: _543  and  _546
REMARK  221  A    between atoms: _546  and  _547
REMARK  222  A    between atoms: _550  and  _552
REMARK  223  A    between atoms: _552  and  _553
REMARK  224  A    between atoms: _552  and  _555
REMARK  225  A    between atoms: _555  and  _556
REMARK  226  A    between atoms: _558  and  _560
REMARK  227  A    between atoms: _560  and  _561
REMARK  228  A    between atoms: _560  and  _563
REMARK  229  A    between atoms: _563  and  _564
REMARK  230  A    between atoms: _567  and  _569
REMARK  231  A    between atoms: _569  and  _570
REMARK  232  A    between atoms: _569  and  _572
REMARK  233  A    between atoms: _572  and  _573
REMARK  234  A    between atoms: _575  and  _577
REMARK  235  A    between atoms: _577  and  _578
REMARK  236  A    between atoms: _577  and  _580
REMARK  237  A    between atoms: _580  and  _581
REMARK  238  A    between atoms: _584  and  _586
REMARK  239  A    between atoms: _586  and  _587
REMARK  240  A    between atoms: _586  and  _589
REMARK  241  A    between atoms: _589  and  _590
REMARK  242  A    between atoms: _595  and  _597
REMARK  243  A    between atoms: _597  and  _598
REMARK  244  A    between atoms: _597  and  _600
REMARK  245  A    between atoms: _600  and  _601
REMARK  246  A    between atoms: _603  and  _605
REMARK  247  A    between atoms: _605  and  _606
REMARK  248  A    between atoms: _605  and  _608
REMARK  249  A    between atoms: _608  and  _609
REMARK  250  A    between atoms: _615  and  _617
REMARK  251  A    between atoms: _617  and  _618
REMARK  252  A    between atoms: _617  and  _620
REMARK  253  A    between atoms: _620  and  _621
REMARK  254  A    between atoms: _623  and  _625
REMARK  255  A    between atoms: _625  and  _626
REMARK  256  A    between atoms: _625  and  _628
REMARK  257  A    between atoms: _628  and  _629
REMARK  258  A    between atoms: _635  and  _637
REMARK  259  A    between atoms: _637  and  _638
REMARK  260  A    between atoms: _637  and  _640
REMARK  261  A    between atoms: _640  and  _641
REMARK  262  A    between atoms: _643  and  _645
REMARK  263  A    between atoms: _645  and  _646
REMARK  264  A    between atoms: _645  and  _648
REMARK  265  A    between atoms: _648  and  _649
REMARK  266  A    between atoms: _654  and  _656
REMARK  267  A    between atoms: _656  and  _657
REMARK  268  A    between atoms: _656  and  _659
REMARK  269  A    between atoms: _659  and  _660
REMARK  270  A    between atoms: _663  and  _665
REMARK  271  A    between atoms: _665  and  _666
REMARK  272  A    between atoms: _665  and  _668
REMARK  273  A    between atoms: _668  and  _669
REMARK  274  A    between atoms: _672  and  _674
REMARK  275  A    between atoms: _674  and  _675
REMARK  276  A    between atoms: _674  and  _677
REMARK  277  A    between atoms: _677  and  _678
REMARK  278  A    between atoms: _678  and  _679
REMARK  279  A    between atoms: _684  and  _686
REMARK  280  A    between atoms: _686  and  _687
REMARK  281  A    between atoms: _690  and  _692
REMARK  282  A    between atoms: _692  and  _693
REMARK  283  A    between atoms: _692  and  _695
REMARK  284  A    between atoms: _698  and  _700
REMARK  285  A    between atoms: _700  and  _701
REMARK  286  A    between atoms: _700  and  _703
REMARK  287  A    between atoms: _703  and  _704
REMARK  288  A    between atoms: _707  and  _709
REMARK  289  A    between atoms: _709  and  _710
REMARK  290  A    between atoms: _709  and  _712
REMARK  291  A    between atoms: _712  and  _713
REMARK  292  A    between atoms: _713  and  _714
REMARK  293  A    between atoms: _714  and  _715
REMARK  294  A    between atoms: _724  and  _726
REMARK  295  A    between atoms: _726  and  _727
REMARK  296  A    between atoms: _726  and  _729
REMARK  297  A    between atoms: _729  and  _730
REMARK  298  A    between atoms: _730  and  _731
REMARK  299  A    between atoms: _731  and  _732
REMARK  300  A    between atoms: _732  and  _733
REMARK                            x       y       z     vdW  Elec       q    Type
REMARK                         _______ _______ _______ _____ _____    ______ ____
ROOT
ATOM      1  CA  SER A   1     101.177  19.570   2.501  0.00  0.00    +0.163 C 
ENDROOT
BRANCH   1   2
ATOM      2  N   SER A   1     101.367  19.520   1.048  0.00  0.00    -0.237 NA
ATOM      3  H   SER A   1     100.703  18.980   0.458  0.00  0.00    +0.142 HD
ENDBRANCH   1   2
BRANCH   1   4
ATOM      4  C   SER A   1     102.375  18.929   3.274  0.00  0.00    +0.227 C 
ATOM      5  O   SER A   1     102.823  19.445   4.306  0.00  0.00    -0.287 OA
ENDBRANCH   1   4
BRANCH   1   6
ATOM      6  CB  SER A   1      99.847  18.916   2.868  0.00  0.00    +0.162 C 
BRANCH   6   7
ATOM      7  OG  SER A   1      99.688  18.845   4.263  0.00  0.00    -0.380 OA
ATOM      8  H   SER A   1      99.709  19.759   4.643  0.00  0.00    +0.211 HD
ENDBRANCH   6   7
ENDBRANCH   1   6
TORSDOF 4
REMARK  Name = ../refined-set-2016/4fys/4fys_pocket.pdb
REMARK  300 active torsions:
REMARK  status: ('A' for Active; 'I' for Inactive)
REMARK    1  A    between atoms: _1  and  _3
REMARK    2  A    between atoms: _3  and  _4
REMARK    3  A    between atoms: _3  and  _6
REMARK    4  A    between atoms: _6  and  _7
REMARK    5  A    between atoms: _7  and  _8
REMARK    6  A    between atoms: _13  and  _15
REMARK    7  A    between atoms: _15  and  _16
REMARK    8  A    between atoms: _15  and  _18
REMARK    9  A    between atoms: _18  and  _19
REMARK   10  A    between atoms: _19  and  _20
REMARK   11  A    between atoms: _22  and  _24
REMARK   12  A    between atoms: _24  and  _25
REMARK   13  A    between atoms: _24  and  _27
REMARK   14  A    between atoms: _27  and  _28
REMARK   15  A    between atoms: _28  and  _29
REMARK   16  A    between atoms: _34  and  _36
REMARK   17  A    between atoms: _36  and  _37
REMARK   18  A    between atoms: _40  and  _42
REMARK   19  A    between atoms: _42  and  _43
REMARK   20  A    between atoms: _42  and  _45
REMARK   21  A    between atoms: _45  and  _46
REMARK   22  A    between atoms: _51  and  _52
REMARK   23  A    between atoms: _54  and  _56
REMARK   24  A    between atoms: _56  and  _57
REMARK   25  A    between atoms: _56  and  _59
REMARK   26  A    between atoms: _59  and  _60
REMARK   27  A    between atoms: _63  and  _65
REMARK   28  A    between atoms: _65  and  _66
REMARK   29  A    between atoms: _65  and  _68
REMARK   30  A    between atoms: _68  and  _69
REMARK   31  A    between atoms: _75  and  _77
REMARK   32  A    between atoms: _77  and  _78
REMARK   33  A    between atoms: _77  and  _80
REMARK   34  A    between atoms: _80  and  _81
REMARK   35  A    between atoms: _86  and  _88
REMARK   36  A    between atoms: _88  and  _89
REMARK   37  A    between atoms: _92  and  _94
REMARK   38  A    between atoms: _94  and  _95
REMARK   39  A    between atoms: _97  and  _99
REMARK   40  A    between atoms: _99  and  _100
REMARK   41  A    between atoms: _103  and  _105
REMARK   42  A    between atoms: _105  and  _106
REMARK   43  A    between atoms: _105  and  _108
REMARK   44  A    between atoms: _108  and  _109
REMARK   45  A    between atoms: _109  and  _110
REMARK   46  A    between atoms: _112  and  _114
REMARK   47  A    between atoms: _114  and  _115
REMARK   48  A    between atoms: _114  and  _117
REMARK   49  A    between atoms: _117  and  _118
REMARK   50  A    between atoms: _118  and  _119
REMARK   51  A    between atoms: _122  and  _124
REMARK   52  A    between atoms: _124  and  _125
REMARK   53  A    between atoms: _124  and  _127
REMARK   54  A    between atoms: _127  and  _128
REMARK   55  A    between atoms: _133  and  _135
REMARK   56  A    between atoms: _135  and  _136
REMARK   57  A    between atoms: _135  and  _138
REMARK   58  A    between atoms: _138  and  _139
REMARK   59  A    between atoms: _142  and  _144
REMARK   60  A    between atoms: _144  and  _145
REMARK   61  A    between atoms: _144  and  _147
REMARK   62  A    between atoms: _147  and  _148
REMARK   63  A    between atoms: _153  and  _154
REMARK   64  A    between atoms: _156  and  _158
REMARK   65  A    between atoms: _158  and  _159
REMARK   66  A    between atoms: _158  and  _161
REMARK   67  A    between atoms: _161  and  _162
REMARK   68  A    between atoms: _162  and  _163
REMARK   69  A    between atoms: _163  and  _164
REMARK   70  A    between atoms: _173  and  _175
REMARK   71  A    between atoms: _175  and  _176
REMARK   72  A    between atoms: _175  and  _178
REMARK   73  A    between atoms: _178  and  _179
REMARK   74  A    between atoms: _184  and  _186
REMARK   75  A    between atoms: _186  and  _187
REMARK   76  A    between atoms: _186  and  _189
REMARK   77  A    between atoms: _189  and  _190
REMARK   78  A    between atoms: _192  and  _194
REMARK   79  A    between atoms: _194  and  _195
REMARK   80  A    between atoms: _194  and  _197
REMARK   81  A    between atoms: _197  and  _198
REMARK   82  A    between atoms: _200  and  _202
REMARK   83  A    between atoms: _202  and  _203
REMARK   84  A    between atoms: _202  and  _205
REMARK   85  A    between atoms: _205  and  _206
REMARK   86  A    between atoms: _206  and  _207
REMARK   87  A    between atoms: _210  and  _212
REMARK   88  A    between atoms: _212  and  _213
REMARK   89  A    between atoms: _212  and  _215
REMARK   90  A    between atoms: _215  and  _216
REMARK   91  A    between atoms: _216  and  _217
REMARK   92  A    between atoms: _217  and  _218
REMARK   93  A    between atoms: _227  and  _229
REMARK   94  A    between atoms: _229  and  _230
REMARK   95  A    between atoms: _229  and  _232
REMARK   96  A    between atoms: _235  and  _237
REMARK   97  A    between atoms: _237  and  _238
REMARK   98  A    between atoms: _237  and  _240
REMARK   99  A    between atoms: _240  and  _241
REMARK  100  A    between atoms: _244  and  _246
REMARK  101  A    between atoms: _246  and  _247
REMARK  102  A    between atoms: _246  and  _249
REMARK  103  A    between atoms: _252  and  _254
REMARK  104  A    between atoms: _254  and  _255
REMARK  105  A    between atoms: _254  and  _257
REMARK  106  A    between atoms: _257  and  _258
REMARK  107  A    between atoms: _261  and  _263
REMARK  108  A    between atoms: _263  and  _264
REMARK  109  A    between atoms: _267  and  _269
REMARK  110  A    between atoms: _269  and  _270
REMARK  111  A    between atoms: _269  and  _272
REMARK  112  A    between atoms: _272  and  _273
REMARK  113  A    between atoms: _278  and  _280
REMARK  114  A    between atoms: _280  and  _281
REMARK  115  A    between atoms: _280  and  _283
REMARK  116  A    between atoms: _283  and  _284
REMARK  117  A    between atoms: _284  and  _285
REMARK  118  A    between atoms: _288  and  _290
REMARK  119  A    between atoms: _290  and  _291
REMARK  120  A    between atoms: _290  and  _293
REMARK  121  A    between atoms: _293  and  _294
REMARK  122  A    between atoms: _299  and  _301
REMARK  123  A    between atoms: _301  and  _302
REMARK  124  A    between atoms: _301  and  _304
REMARK  125  A    between atoms: _304  and  _305
REMARK  126  A    between atoms: _315  and  _317
REMARK  127  A    between atoms: _317  and  _318
REMARK  128  A    between atoms: _317  and  _320
REMARK  129  A    between atoms: _320  and  _321
REMARK  130  A    between atoms: _324  and  _326
REMARK  131  A    between atoms: _326  and  _327
REMARK  132  A    between atoms: _326  and  _329
REMARK  133  A    between atoms: _329  and  _330
REMARK  134  A    between atoms: _335  and  _337
REMARK  135  A    between atoms: _337  and  _338
REMARK  136  A    between atoms: _337  and  _340
REMARK  137  A    between atoms: _340  and  _341
REMARK  138  A    between atoms: _341  and  _342
REMARK  139  A    between atoms: _345  and  _347
REMARK  140  A    between atoms: _347  and  _348
REMARK  141  A    between atoms: _351  and  _353
REMARK  142  A    between atoms: _353  and  _354
REMARK  143  A    between atoms: _353  and  _356
REMARK  144  A    between atoms: _356  and  _357
REMARK  145  A    between atoms: _359  and  _361
REMARK  146  A    between atoms: _361  and  _362
REMARK  147  A    between atoms: _361  and  _364
REMARK  148  A    between atoms: _364  and  _365
REMARK  149  A    between atoms: _365  and  _366
REMARK  150  A    between atoms: _369  and  _371
REMARK  151  A    between atoms: _371  and  _372
REMARK  152  A    between atoms: _371  and  _374
REMARK  153  A    between atoms: _374  and  _375
REMARK  154  A    between atoms: _380  and  _381
REMARK  155  A    between atoms: _383  and  _385
REMARK  156  A    between atoms: _385  and  _386
REMARK  157  A    between atoms: _385  and  _388
REMARK  158  A    between atoms: _388  and  _389
REMARK  159  A    between atoms: _392  and  _394
REMARK  160  A    between atoms: _394  and  _395
REMARK  161  A    between atoms: _394  and  _397
REMARK  162  A    between atoms: _397  and  _398
REMARK  163  A    between atoms: _403  and  _405
REMARK  164  A    between atoms: _405  and  _406
REMARK  165  A    between atoms: _405  and  _408
REMARK  166  A    between atoms: _408  and  _409
REMARK  167  A    between atoms: _412  and  _414
REMARK  168  A    between atoms: _414  and  _415
REMARK  169  A    between atoms: _414  and  _417
REMARK  170  A    between atoms: _417  and  _418
REMARK  171  A    between atoms: _423  and  _424
REMARK  172  A    between atoms: _426  and  _428
REMARK  173  A    between atoms: _428  and  _429
REMARK  174  A    between atoms: _428  and  _431
REMARK  175  A    between atoms: _431  and  _432
REMARK  176  A    between atoms: _432  and  _433
REMARK  177  A    between atoms: _433  and  _434
REMARK  178  A    between atoms: _443  and  _445
REMARK  179  A    between atoms: _445  and  _446
REMARK  180  A    between atoms: _445  and  _448
REMARK  181  A    between atoms: _451  and  _453
REMARK  182  A    between atoms: _453  and  _454
REMARK  183  A    between atoms: _457  and  _459
REMARK  184  A    between atoms: _459  and  _460
REMARK  185  A    between atoms: _459  and  _462
REMARK  186  A    between atoms: _465  and  _467
REMARK  187  A    between atoms: _467  and  _468
REMARK  188  A    between atoms: _467  and  _470
REMARK  189  A    between atoms: _470  and  _471
REMARK  190  A    between atoms: _473  and  _475
REMARK  191  A    between atoms: _475  and  _476
REMARK  192  A    between atoms: _475  and  _478
REMARK  193  A    between atoms: _478  and  _479
REMARK  194  A    between atoms: _479  and  _480
REMARK  195  A    between atoms: _483  and  _485
REMARK  196  A    between atoms: _485  and  _486
REMARK  197  A    between atoms: _485  and  _488
REMARK  198  A    between atoms: _488  and  _489
REMARK  199  A    between atoms: _492  and  _494
REMARK  200  A    between atoms: _494  and  _495
REMARK  201  A    between atoms: _494  and  _497
REMARK  202  A    between atoms: _497  and  _498
REMARK  203  A    between atoms: _504  and  _506
REMARK  204  A    between atoms: _506  and  _507
REMARK  205  A    between atoms: _506  and  _509
REMARK  206  A    between atoms: _509  and  _510
REMARK  207  A    between atoms: _513  and  _515
REMARK  208  A    between atoms: _515  and  _516
REMARK  209  A    between atoms: _519  and  _521
REMARK  210  A    between atoms: _521  and  _522
REMARK  211  A    between atoms: _521  and  _524
REMARK  212  A    between atoms: _524  and  _525
REMARK  213  A    between atoms: _530  and  _531
REMARK  214  A    between atoms: _533  and  _535
REMARK  215  A    between atoms: _535  and  _536
REMARK  216  A    between atoms: _535  and  _538
REMARK  217  A    between atoms: _538  and  _539
REMARK  218  A    between atoms: _541  and  _543
REMARK  219  A    between atoms: _543  and  _544
REMARK  220  A    between atoms: _543  and  _546
REMARK  221  A    between atoms: _546  and  _547
REMARK  222  A    between atoms: _550  and  _552
REMARK  223  A    between atoms: _552  and  _553
REMARK  224  A    between atoms: _552  and  _555
REMARK  225  A    between atoms: _555  and  _556
REMARK  226  A    between atoms: _558  and  _560
REMARK  227  A    between atoms: _560  and  _561
REMARK  228  A    between atoms: _560  and  _563
REMARK  229  A    between atoms: _563  and  _564
REMARK  230  A    between atoms: _567  and  _569
REMARK  231  A    between atoms: _569  and  _570
REMARK  232  A    between atoms: _569  and  _572
REMARK  233  A    between atoms: _572  and  _573
REMARK  234  A    between atoms: _575  and  _577
REMARK  235  A    between atoms: _577  and  _578
REMARK  236  A    between atoms: _577  and  _580
REMARK  237  A    between atoms: _580  and  _581
REMARK  238  A    between atoms: _584  and  _586
REMARK  239  A    between atoms: _586  and  _587
REMARK  240  A    between atoms: _586  and  _589
REMARK  241  A    between atoms: _589  and  _590
REMARK  242  A    between atoms: _595  and  _597
REMARK  243  A    between atoms: _597  and  _598
REMARK  244  A    between atoms: _597  and  _600
REMARK  245  A    between atoms: _600  and  _601
REMARK  246  A    between atoms: _603  and  _605
REMARK  247  A    between atoms: _605  and  _606
REMARK  248  A    between atoms: _605  and  _608
REMARK  249  A    between atoms: _608  and  _609
REMARK  250  A    between atoms: _615  and  _617
REMARK  251  A    between atoms: _617  and  _618
REMARK  252  A    between atoms: _617  and  _620
REMARK  253  A    between atoms: _620  and  _621
REMARK  254  A    between atoms: _623  and  _625
REMARK  255  A    between atoms: _625  and  _626
REMARK  256  A    between atoms: _625  and  _628
REMARK  257  A    between atoms: _628  and  _629
REMARK  258  A    between atoms: _635  and  _637
REMARK  259  A    between atoms: _637  and  _638
REMARK  260  A    between atoms: _637  and  _640
REMARK  261  A    between atoms: _640  and  _641
REMARK  262  A    between atoms: _643  and  _645
REMARK  263  A    between atoms: _645  and  _646
REMARK  264  A    between atoms: _645  and  _648
REMARK  265  A    between atoms: _648  and  _649
REMARK  266  A    between atoms: _654  and  _656
REMARK  267  A    between atoms: _656  and  _657
REMARK  268  A    between atoms: _656  and  _659
REMARK  269  A    between atoms: _659  and  _660
REMARK  270  A    between atoms: _663  and  _665
REMARK  271  A    between atoms: _665  and  _666
REMARK  272  A    between atoms: _665  and  _668
REMARK  273  A    between atoms: _668  and  _669
REMARK  274  A    between atoms: _672  and  _674
REMARK  275  A    between atoms: _674  and  _675
REMARK  276  A    between atoms: _674  and  _677
REMARK  277  A    between atoms: _677  and  _678
REMARK  278  A    between atoms: _678  and  _679
REMARK  279  A    between atoms: _684  and  _686
REMARK  280  A    between atoms: _686  and  _687
REMARK  281  A    between atoms: _690  and  _692
REMARK  282  A    between atoms: _692  and  _693
REMARK  283  A    between atoms: _692  and  _695
REMARK  284  A    between atoms: _698  and  _700
REMARK  285  A    between atoms: _700  and  _701
REMARK  286  A    between atoms: _700  and  _703
REMARK  287  A    between atoms: _703  and  _704
REMARK  288  A    between atoms: _707  and  _709
REMARK  289  A    between atoms: _709  and  _710
REMARK  290  A    between atoms: _709  and  _712
REMARK  291  A    between atoms: _712  and  _713
REMARK  292  A    between atoms: _713  and  _714
REMARK  293  A    between atoms: _714  and  _715
REMARK  294  A    between atoms: _724  and  _726
REMARK  295  A    between atoms: _726  and  _727
REMARK  296  A    between atoms: _726  and  _729
REMARK  297  A    between atoms: _729  and  _730
REMARK  298  A    between atoms: _730  and  _731
REMARK  299  A    between atoms: _731  and  _732
REMARK  300  A    between atoms: _732  and  _733
REMARK                            x       y       z     vdW  Elec       q    Type
REMARK                         _______ _______ _______ _____ _____    ______ ____
ROOT
ATOM      1  CA  ARG A   2     105.268  20.204   7.160  0.00  0.00    +0.149 C 
ENDROOT
BRANCH   1   4
ATOM      2  C   GLU A   1     105.206  22.062   5.563  0.00  0.00    +0.238 C 
ATOM      3  O   GLU A   1     105.824  22.778   6.351  0.00  0.00    -0.274 OA
ATOM      4  N   ARG A   2     104.851  20.808   5.867  0.00  0.00    -0.297 N 
ATOM      5  H   ARG A   2     104.281  20.254   5.196  0.00  0.00    +0.150 HD
BRANCH   2   6
ATOM      6  CA  GLU A   1     104.806  22.598   4.184  0.00  0.00    +0.145 C 
BRANCH   6   7
ATOM      7  N   GLU A   1     105.109  21.607   3.133  0.00  0.00    -0.238 NA
ATOM      8  H   GLU A   1     104.350  21.294   2.494  0.00  0.00    +0.142 HD
ENDBRANCH   6   7
BRANCH   6   9
ATOM      9  CB  GLU A   1     103.320  22.964   4.176  0.00  0.00    +0.038 C 
BRANCH   9  10
ATOM     10  CG  GLU A   1     102.985  24.002   5.253  0.00  0.00    +0.116 C 
BRANCH  10  11
ATOM     11  CD  GLU A   1     101.494  24.222   5.480  0.00  0.00    +0.365 C 
ATOM     12  OE2 GLU A   1     101.178  24.832   6.507  0.00  0.00    -0.246 OA
ATOM     13  OE1 GLU A   1     100.632  23.828   4.657  0.00  0.00    -0.246 OA
ENDBRANCH  10  11
ENDBRANCH   9  10
ENDBRANCH   6   9
ENDBRANCH   2   6
ENDBRANCH   1   4
BRANCH   1  14
ATOM     14  C   ARG A   2     106.788  20.221   7.420  0.00  0.00    +0.241 C 
ATOM     15  O   ARG A   2     107.241  20.624   8.490  0.00  0.00    -0.273 OA
ATOM     16  N   VAL A   3     107.567  19.815   6.422  0.00  0.00    -0.298 N 
ATOM     17  H   VAL A   3     107.131  19.466   5.545  0.00  0.00    +0.150 HD
BRANCH  16  18
ATOM     18  CA  VAL A   3     109.021  19.849   6.533  0.00  0.00    +0.137 C 
BRANCH  18  19
ATOM     19  CB  VAL A   3     109.714  19.314   5.266  0.00  0.00    +0.026 C 
ATOM     20  CG2 VAL A   3     111.229  19.476   5.386  0.00  0.00    +0.002 C 
ATOM     21  CG1 VAL A   3     109.359  17.840   5.074  0.00  0.00    +0.002 C 
ENDBRANCH  18  19
BRANCH  18  22
ATOM     22  C   VAL A   3     109.529  21.257   6.881  0.00  0.00    +0.227 C 
ATOM     23  O   VAL A   3     110.243  21.416   7.876  0.00  0.00    -0.286 OA
ENDBRANCH  18  22
ENDBRANCH  16  18
ENDBRANCH   1  14
BRANCH   1  24
ATOM     24  CB  ARG A   2     104.700  18.789   7.345  0.00  0.00    +0.033 C 
BRANCH  24  25
ATOM     25  CG  ARG A   2     105.046  18.191   8.716  0.00  0.00    +0.045 C 
BRANCH  25  26
ATOM     26  CD  ARG A   2     104.647  16.727   8.874  0.00  0.00    +0.174 C 
BRANCH  26  27
ATOM     27  NE  ARG A   2     105.241  16.167  10.098  0.00  0.00    -0.265 N 
ATOM     28  CZ  ARG A   2     104.716  16.246  11.331  0.00  0.00    +0.342 C 
ATOM     29  NH2 ARG A   2     105.364  15.699  12.363  0.00  0.00    -0.292 N 
ATOM     30 HH21 ARG A   2     104.961  15.758  13.320  0.00  0.00    +0.255 HD
ATOM     31 HH22 ARG A   2     106.271  15.214  12.209  0.00  0.00    +0.255 HD
ATOM     32  NH1 ARG A   2     103.551  16.861  11.547  0.00  0.00    -0.292 N 
ATOM     33 HH11 ARG A   2     103.160  16.912  12.510  0.00  0.00    +0.255 HD
ATOM     34 HH12 ARG A   2     103.034  17.289  10.753  0.00  0.00    +0.255 HD
ATOM     35  HE  ARG A   2     106.147  15.666   9.999  0.00  0.00    +0.259 HD
ENDBRANCH  26  27
ENDBRANCH  25  26
ENDBRANCH  24  25
ENDBRANCH   1  24
TORSDOF 14
REMARK  Name = ../refined-set-2016/4fys/4fys_pocket.pdb
REMARK  300 active torsions:
REMARK  status: ('A' for Active; 'I' for Inactive)
REMARK    1  A    between atoms: _1  and  _3
REMARK    2  A    between atoms: _3  and  _4
REMARK    3  A    between atoms: _3  and  _6
REMARK    4  A    between atoms: _6  and  _7
REMARK    5  A    between atoms: _7  and  _8
REMARK    6  A    between atoms: _13  and  _15
REMARK    7  A    between atoms: _15  and  _16
REMARK    8  A    between atoms: _15  and  _18
REMARK    9  A    between atoms: _18  and  _19
REMARK   10  A    between atoms: _19  and  _20
REMARK   11  A    between atoms: _22  and  _24
REMARK   12  A    between atoms: _24  and  _25
REMARK   13  A    between atoms: _24  and  _27
REMARK   14  A    between atoms: _27  and  _28
REMARK   15  A    between atoms: _28  and  _29
REMARK   16  A    between atoms: _34  and  _36
REMARK   17  A    between atoms: _36  and  _37
REMARK   18  A    between atoms: _40  and  _42
REMARK   19  A    between atoms: _42  and  _43
REMARK   20  A    between atoms: _42  and  _45
REMARK   21  A    between atoms: _45  and  _46
REMARK   22  A    between atoms: _51  and  _52
REMARK   23  A    between atoms: _54  and  _56
REMARK   24  A    between atoms: _56  and  _57
REMARK   25  A    between atoms: _56  and  _59
REMARK   26  A    between atoms: _59  and  _60
REMARK   27  A    between atoms: _63  and  _65
REMARK   28  A    between atoms: _65  and  _66
REMARK   29  A    between atoms: _65  and  _68
REMARK   30  A    between atoms: _68  and  _69
REMARK   31  A    between atoms: _75  and  _77
REMARK   32  A    between atoms: _77  and  _78
REMARK   33  A    between atoms: _77  and  _80
REMARK   34  A    between atoms: _80  and  _81
REMARK   35  A    between atoms: _86  and  _88
REMARK   36  A    between atoms: _88  and  _89
REMARK   37  A    between atoms: _92  and  _94
REMARK   38  A    between atoms: _94  and  _95
REMARK   39  A    between atoms: _97  and  _99
REMARK   40  A    between atoms: _99  and  _100
REMARK   41  A    between atoms: _103  and  _105
REMARK   42  A    between atoms: _105  and  _106
REMARK   43  A    between atoms: _105  and  _108
REMARK   44  A    between atoms: _108  and  _109
REMARK   45  A    between atoms: _109  and  _110
REMARK   46  A    between atoms: _112  and  _114
REMARK   47  A    between atoms: _114  and  _115
REMARK   48  A    between atoms: _114  and  _117
REMARK   49  A    between atoms: _117  and  _118
REMARK   50  A    between atoms: _118  and  _119
REMARK   51  A    between atoms: _122  and  _124
REMARK   52  A    between atoms: _124  and  _125
REMARK   53  A    between atoms: _124  and  _127
REMARK   54  A    between atoms: _127  and  _128
REMARK   55  A    between atoms: _133  and  _135
REMARK   56  A    between atoms: _135  and  _136
REMARK   57  A    between atoms: _135  and  _138
REMARK   58  A    between atoms: _138  and  _139
REMARK   59  A    between atoms: _142  and  _144
REMARK   60  A    between atoms: _144  and  _145
REMARK   61  A    between atoms: _144  and  _147
REMARK   62  A    between atoms: _147  and  _148
REMARK   63  A    between atoms: _153  and  _154
REMARK   64  A    between atoms: _156  and  _158
REMARK   65  A    between atoms: _158  and  _159
REMARK   66  A    between atoms: _158  and  _161
REMARK   67  A    between atoms: _161  and  _162
REMARK   68  A    between atoms: _162  and  _163
REMARK   69  A    between atoms: _163  and  _164
REMARK   70  A    between atoms: _173  and  _175
REMARK   71  A    between atoms: _175  and  _176
REMARK   72  A    between atoms: _175  and  _178
REMARK   73  A    between atoms: _178  and  _179
REMARK   74  A    between atoms: _184  and  _186
REMARK   75  A    between atoms: _186  and  _187
REMARK   76  A    between atoms: _186  and  _189
REMARK   77  A    between atoms: _189  and  _190
REMARK   78  A    between atoms: _192  and  _194
REMARK   79  A    between atoms: _194  and  _195
REMARK   80  A    between atoms: _194  and  _197
REMARK   81  A    between atoms: _197  and  _198
REMARK   82  A    between atoms: _200  and  _202
REMARK   83  A    between atoms: _202  and  _203
REMARK   84  A    between atoms: _202  and  _205
REMARK   85  A    between atoms: _205  and  _206
REMARK   86  A    between atoms: _206  and  _207
REMARK   87  A    between atoms: _210  and  _212
REMARK   88  A    between atoms: _212  and  _213
REMARK   89  A    between atoms: _212  and  _215
REMARK   90  A    between atoms: _215  and  _216
REMARK   91  A    between atoms: _216  and  _217
REMARK   92  A    between atoms: _217  and  _218
REMARK   93  A    between atoms: _227  and  _229
REMARK   94  A    between atoms: _229  and  _230
REMARK   95  A    between atoms: _229  and  _232
REMARK   96  A    between atoms: _235  and  _237
REMARK   97  A    between atoms: _237  and  _238
REMARK   98  A    between atoms: _237  and  _240
REMARK   99  A    between atoms: _240  and  _241
REMARK  100  A    between atoms: _244  and  _246
REMARK  101  A    between atoms: _246  and  _247
REMARK  102  A    between atoms: _246  and  _249
REMARK  103  A    between atoms: _252  and  _254
REMARK  104  A    between atoms: _254  and  _255
REMARK  105  A    between atoms: _254  and  _257
REMARK  106  A    between atoms: _257  and  _258
REMARK  107  A    between atoms: _261  and  _263
REMARK  108  A    between atoms: _263  and  _264
REMARK  109  A    between atoms: _267  and  _269
REMARK  110  A    between atoms: _269  and  _270
REMARK  111  A    between atoms: _269  and  _272
REMARK  112  A    between atoms: _272  and  _273
REMARK  113  A    between atoms: _278  and  _280
REMARK  114  A    between atoms: _280  and  _281
REMARK  115  A    between atoms: _280  and  _283
REMARK  116  A    between atoms: _283  and  _284
REMARK  117  A    between atoms: _284  and  _285
REMARK  118  A    between atoms: _288  and  _290
REMARK  119  A    between atoms: _290  and  _291
REMARK  120  A    between atoms: _290  and  _293
REMARK  121  A    between atoms: _293  and  _294
REMARK  122  A    between atoms: _299  and  _301
REMARK  123  A    between atoms: _301  and  _302
REMARK  124  A    between atoms: _301  and  _304
REMARK  125  A    between atoms: _304  and  _305
REMARK  126  A    between atoms: _315  and  _317
REMARK  127  A    between atoms: _317  and  _318
REMARK  128  A    between atoms: _317  and  _320
REMARK  129  A    between atoms: _320  and  _321
REMARK  130  A    between atoms: _324  and  _326
REMARK  131  A    between atoms: _326  and  _327
REMARK  132  A    between atoms: _326  and  _329
REMARK  133  A    between atoms: _329  and  _330
REMARK  134  A    between atoms: _335  and  _337
REMARK  135  A    between atoms: _337  and  _338
REMARK  136  A    between atoms: _337  and  _340
REMARK  137  A    between atoms: _340  and  _341
REMARK  138  A    between atoms: _341  and  _342
REMARK  139  A    between atoms: _345  and  _347
REMARK  140  A    between atoms: _347  and  _348
REMARK  141  A    between atoms: _351  and  _353
REMARK  142  A    between atoms: _353  and  _354
REMARK  143  A    between atoms: _353  and  _356
REMARK  144  A    between atoms: _356  and  _357
REMARK  145  A    between atoms: _359  and  _361
REMARK  146  A    between atoms: _361  and  _362
REMARK  147  A    between atoms: _361  and  _364
REMARK  148  A    between atoms: _364  and  _365
REMARK  149  A    between atoms: _365  and  _366
REMARK  150  A    between atoms: _369  and  _371
REMARK  151  A    between atoms: _371  and  _372
REMARK  152  A    between atoms: _371  and  _374
REMARK  153  A    between atoms: _374  and  _375
REMARK  154  A    between atoms: _380  and  _381
REMARK  155  A    between atoms: _383  and  _385
REMARK  156  A    between atoms: _385  and  _386
REMARK  157  A    between atoms: _385  and  _388
REMARK  158  A    between atoms: _388  and  _389
REMARK  159  A    between atoms: _392  and  _394
REMARK  160  A    between atoms: _394  and  _395
REMARK  161  A    between atoms: _394  and  _397
REMARK  162  A    between atoms: _397  and  _398
REMARK  163  A    between atoms: _403  and  _405
REMARK  164  A    between atoms: _405  and  _406
REMARK  165  A    between atoms: _405  and  _408
REMARK  166  A    between atoms: _408  and  _409
REMARK  167  A    between atoms: _412  and  _414
REMARK  168  A    between atoms: _414  and  _415
REMARK  169  A    between atoms: _414  and  _417
REMARK  170  A    between atoms: _417  and  _418
REMARK  171  A    between atoms: _423  and  _424
REMARK  172  A    between atoms: _426  and  _428
REMARK  173  A    between atoms: _428  and  _429
REMARK  174  A    between atoms: _428  and  _431
REMARK  175  A    between atoms: _431  and  _432
REMARK  176  A    between atoms: _432  and  _433
REMARK  177  A    between atoms: _433  and  _434
REMARK  178  A    between atoms: _443  and  _445
REMARK  179  A    between atoms: _445  and  _446
REMARK  180  A    between atoms: _445  and  _448
REMARK  181  A    between atoms: _451  and  _453
REMARK  182  A    between atoms: _453  and  _454
REMARK  183  A    between atoms: _457  and  _459
REMARK  184  A    between atoms: _459  and  _460
REMARK  185  A    between atoms: _459  and  _462
REMARK  186  A    between atoms: _465  and  _467
REMARK  187  A    between atoms: _467  and  _468
REMARK  188  A    between atoms: _467  and  _470
REMARK  189  A    between atoms: _470  and  _471
REMARK  190  A    between atoms: _473  and  _475
REMARK  191  A    between atoms: _475  and  _476
REMARK  192  A    between atoms: _475  and  _478
REMARK  193  A    between atoms: _478  and  _479
REMARK  194  A    between atoms: _479  and  _480
REMARK  195  A    between atoms: _483  and  _485
REMARK  196  A    between atoms: _485  and  _486
REMARK  197  A    between atoms: _485  and  _488
REMARK  198  A    between atoms: _488  and  _489
REMARK  199  A    between atoms: _492  and  _494
REMARK  200  A    between atoms: _494  and  _495
REMARK  201  A    between atoms: _494  and  _497
REMARK  202  A    between atoms: _497  and  _498
REMARK  203  A    between atoms: _504  and  _506
REMARK  204  A    between atoms: _506  and  _507
REMARK  205  A    between atoms: _506  and  _509
REMARK  206  A    between atoms: _509  and  _510
REMARK  207  A    between atoms: _513  and  _515
REMARK  208  A    between atoms: _515  and  _516
REMARK  209  A    between atoms: _519  and  _521
REMARK  210  A    between atoms: _521  and  _522
REMARK  211  A    between atoms: _521  and  _524
REMARK  212  A    between atoms: _524  and  _525
REMARK  213  A    between atoms: _530  and  _531
REMARK  214  A    between atoms: _533  and  _535
REMARK  215  A    between atoms: _535  and  _536
REMARK  216  A    between atoms: _535  and  _538
REMARK  217  A    between atoms: _538  and  _539
REMARK  218  A    between atoms: _541  and  _543
REMARK  219  A    between atoms: _543  and  _544
REMARK  220  A    between atoms: _543  and  _546
REMARK  221  A    between atoms: _546  and  _547
REMARK  222  A    between atoms: _550  and  _552
REMARK  223  A    between atoms: _552  and  _553
REMARK  224  A    between atoms: _552  and  _555
REMARK  225  A    between atoms: _555  and  _556
REMARK  226  A    between atoms: _558  and  _560
REMARK  227  A    between atoms: _560  and  _561
REMARK  228  A    between atoms: _560  and  _563
REMARK  229  A    between atoms: _563  and  _564
REMARK  230  A    between atoms: _567  and  _569
REMARK  231  A    between atoms: _569  and  _570
REMARK  232  A    between atoms: _569  and  _572
REMARK  233  A    between atoms: _572  and  _573
REMARK  234  A    between atoms: _575  and  _577
REMARK  235  A    between atoms: _577  and  _578
REMARK  236  A    between atoms: _577  and  _580
REMARK  237  A    between atoms: _580  and  _581
REMARK  238  A    between atoms: _584  and  _586
REMARK  239  A    between atoms: _586  and  _587
REMARK  240  A    between atoms: _586  and  _589
REMARK  241  A    between atoms: _589  and  _590
REMARK  242  A    between atoms: _595  and  _597
REMARK  243  A    between atoms: _597  and  _598
REMARK  244  A    between atoms: _597  and  _600
REMARK  245  A    between atoms: _600  and  _601
REMARK  246  A    between atoms: _603  and  _605
REMARK  247  A    between atoms: _605  and  _606
REMARK  248  A    between atoms: _605  and  _608
REMARK  249  A    between atoms: _608  and  _609
REMARK  250  A    between atoms: _615  and  _617
REMARK  251  A    between atoms: _617  and  _618
REMARK  252  A    between atoms: _617  and  _620
REMARK  253  A    between atoms: _620  and  _621
REMARK  254  A    between atoms: _623  and  _625
REMARK  255  A    between atoms: _625  and  _626
REMARK  256  A    between atoms: _625  and  _628
REMARK  257  A    between atoms: _628  and  _629
REMARK  258  A    between atoms: _635  and  _637
REMARK  259  A    between atoms: _637  and  _638
REMARK  260  A    between atoms: _637  and  _640
REMARK  261  A    between atoms: _640  and  _641
REMARK  262  A    between atoms: _643  and  _645
REMARK  263  A    between atoms: _645  and  _646
REMARK  264  A    between atoms: _645  and  _648
REMARK  265  A    between atoms: _648  and  _649
REMARK  266  A    between atoms: _654  and  _656
REMARK  267  A    between atoms: _656  and  _657
REMARK  268  A    between atoms: _656  and  _659
REMARK  269  A    between atoms: _659  and  _660
REMARK  270  A    between atoms: _663  and  _665
REMARK  271  A    between atoms: _665  and  _666
REMARK  272  A    between atoms: _665  and  _668
REMARK  273  A    between atoms: _668  and  _669
REMARK  274  A    between atoms: _672  and  _674
REMARK  275  A    between atoms: _674  and  _675
REMARK  276  A    between atoms: _674  and  _677
REMARK  277  A    between atoms: _677  and  _678
REMARK  278  A    between atoms: _678  and  _679
REMARK  279  A    between atoms: _684  and  _686
REMARK  280  A    between atoms: _686  and  _687
REMARK  281  A    between atoms: _690  and  _692
REMARK  282  A    between atoms: _692  and  _693
REMARK  283  A    between atoms: _692  and  _695
REMARK  284  A    between atoms: _698  and  _700
REMARK  285  A    between atoms: _700  and  _701
REMARK  286  A    between atoms: _700  and  _703
REMARK  287  A    between atoms: _703  and  _704
REMARK  288  A    between atoms: _707  and  _709
REMARK  289  A    between atoms: _709  and  _710
REMARK  290  A    between atoms: _709  and  _712
REMARK  291  A    between atoms: _712  and  _713
REMARK  292  A    between atoms: _713  and  _714
REMARK  293  A    between atoms: _714  and  _715
REMARK  294  A    between atoms: _724  and  _726
REMARK  295  A    between atoms: _726  and  _727
REMARK  296  A    between atoms: _726  and  _729
REMARK  297  A    between atoms: _729  and  _730
REMARK  298  A    between atoms: _730  and  _731
REMARK  299  A    between atoms: _731  and  _732
REMARK  300  A    between atoms: _732  and  _733
REMARK                            x       y       z     vdW  Elec       q    Type
REMARK                         _______ _______ _______ _____ _____    ______ ____
ROOT
ATOM      1  C   ILE A   3     112.472  24.214  11.285  0.00  0.00    +0.241 C 
ATOM      2  O   ILE A   3     113.228  24.477  12.224  0.00  0.00    -0.273 OA
ATOM      3  N   ALA A   4     111.619  25.104  10.765  0.00  0.00    -0.297 N 
ATOM      4  H   ALA A   4     111.029  24.825   9.956  0.00  0.00    +0.150 HD
ENDROOT
BRANCH   3   5
ATOM      5  CA  ALA A   4     111.492  26.466  11.305  0.00  0.00    +0.149 C 
ATOM      6  CB  ALA A   4     110.461  27.300  10.518  0.00  0.00    +0.031 C 
BRANCH   5   7
ATOM      7  C   ALA A   4     111.204  26.490  12.818  0.00  0.00    +0.241 C 
ATOM      8  O   ALA A   4     111.819  27.254  13.571  0.00  0.00    -0.273 OA
ATOM      9  N   HIS A   5     110.298  25.630  13.273  0.00  0.00    -0.297 N 
ATOM     10  H   HIS A   5     109.809  25.003  12.603  0.00  0.00    +0.150 HD
BRANCH   9  11
ATOM     11  CA  HIS A   5     109.977  25.549  14.686  0.00  0.00    +0.155 C 
BRANCH  11  12
ATOM     12  C   HIS A   5     111.211  25.109  15.515  0.00  0.00    +0.241 C 
ATOM     13  O   HIS A   5     111.532  25.677  16.579  0.00  0.00    -0.273 OA
ATOM     14  N   GLU A   6     111.887  24.072  15.040  0.00  0.00    -0.298 N 
ATOM     15  H   GLU A   6     111.580  23.599  14.166  0.00  0.00    +0.150 HD
BRANCH  14  16
ATOM     16  CA  GLU A   6     113.073  23.600  15.763  0.00  0.00    +0.137 C 
BRANCH  16  17
ATOM     17  C   GLU A   6     114.199  24.647  15.743  0.00  0.00    +0.227 C 
ATOM     18  O   GLU A   6     114.918  24.801  16.740  0.00  0.00    -0.286 OA
ENDBRANCH  16  17
BRANCH  16  19
ATOM     19  CB  GLU A   6     113.544  22.276  15.152  0.00  0.00    +0.039 C 
BRANCH  19  20
ATOM     20  CG  GLU A   6     112.483  21.192  15.304  0.00  0.00    +0.116 C 
BRANCH  20  21
ATOM     21  CD  GLU A   6     112.070  21.019  16.736  0.00  0.00    +0.365 C 
ATOM     22  OE2 GLU A   6     112.863  20.450  17.507  0.00  0.00    -0.246 OA
ATOM     23  OE1 GLU A   6     110.998  21.495  17.132  0.00  0.00    -0.246 OA
ENDBRANCH  20  21
ENDBRANCH  19  20
ENDBRANCH  16  19
ENDBRANCH  14  16
ENDBRANCH  11  12
BRANCH  11  24
ATOM     24  CB  HIS A   5     108.858  24.537  14.841  0.00  0.00    +0.076 C 
BRANCH  24  25
ATOM     25  CG  HIS A   5     108.410  24.323  16.247  0.00  0.00    +0.082 A 
ATOM     26  CD2 HIS A   5     108.916  23.550  17.238  0.00  0.00    +0.115 A 
ATOM     27  NE2 HIS A   5     108.052  23.652  18.303  0.00  0.00    -0.221 NA
ATOM     28  CE1 HIS A   5     107.061  24.467  17.985  0.00  0.00    +0.199 A 
ATOM     29  ND1 HIS A   5     107.243  24.880  16.745  0.00  0.00    -0.227 NA
ENDBRANCH  24  25
ENDBRANCH  11  24
ENDBRANCH   9  11
ENDBRANCH   5   7
ENDBRANCH   3   5
BRANCH   1  30
ATOM     30  CA  ILE A   3     112.467  22.786  10.660  0.00  0.00    +0.149 C 
BRANCH  30  33
ATOM     31  C   VAL A   2     110.355  22.195  11.717  0.00  0.00    +0.241 C 
ATOM     32  O   VAL A   2     110.788  22.485  12.811  0.00  0.00    -0.273 OA
ATOM     33  N   ILE A   3     111.101  22.250  10.608  0.00  0.00    -0.297 N 
ATOM     34  H   ILE A   3     110.712  21.912   9.705  0.00  0.00    +0.150 HD
BRANCH  31  35
ATOM     35  CA  VAL A   2     108.892  21.769  11.567  0.00  0.00    +0.148 C 
BRANCH  35  38
ATOM     36  C   THR A   1     108.093  23.813  10.492  0.00  0.00    +0.241 C 
ATOM     37  O   THR A   1     108.350  24.497  11.489  0.00  0.00    -0.274 OA
ATOM     38  N   VAL A   2     108.304  22.495  10.448  0.00  0.00    -0.297 N 
ATOM     39  H   VAL A   2     108.041  21.971   9.589  0.00  0.00    +0.150 HD
BRANCH  36  40
ATOM     40  CA  THR A   1     107.487  24.488   9.244  0.00  0.00    +0.172 C 
BRANCH  40  41
ATOM     41  CB  THR A   1     105.925  24.505   9.297  0.00  0.00    +0.135 C 
ATOM     42  CG2 THR A   1     105.343  25.191   8.129  0.00  0.00    +0.034 C 
BRANCH  41  43
ATOM     43  OG1 THR A   1     105.442  23.186   9.220  0.00  0.00    -0.383 OA
ATOM     44  HG1 THR A   1     105.741  22.776   8.370  0.00  0.00    +0.210 HD
ENDBRANCH  41  43
ENDBRANCH  40  41
BRANCH  40  45
ATOM     45  N   THR A   1     108.013  23.918   8.025  0.00  0.00    -0.236 NA
ATOM     46  H   THR A   1     107.424  23.280   7.452  0.00  0.00    +0.142 HD
ENDBRANCH  40  45
ENDBRANCH  36  40
ENDBRANCH  35  38
BRANCH  35  47
ATOM     47  CB  VAL A   2     108.802  20.231  11.421  0.00  0.00    +0.027 C 
ATOM     48  CG2 VAL A   2     109.608  19.541  12.519  0.00  0.00    +0.002 C 
ATOM     49  CG1 VAL A   2     107.334  19.757  11.473  0.00  0.00    +0.002 C 
ENDBRANCH  35  47
ENDBRANCH  31  35
ENDBRANCH  30  33
BRANCH  30  50
ATOM     50  CB  ILE A   3     113.173  22.791   9.282  0.00  0.00    +0.027 C 
ATOM     51  CG2 ILE A   3     114.509  23.544   9.388  0.00  0.00    +0.002 C 
BRANCH  50  52
ATOM     52  CG1 ILE A   3     113.388  21.345   8.759  0.00  0.00    +0.002 C 
ATOM     53  CD1 ILE A   3     113.830  21.299   7.300  0.00  0.00    +0.000 C 
ENDBRANCH  50  52
ENDBRANCH  30  50
ENDBRANCH   1  30
TORSDOF 22
REMARK  Name = ../refined-set-2016/4fys/4fys_pocket.pdb
REMARK  300 active torsions:
REMARK  status: ('A' for Active; 'I' for Inactive)
REMARK    1  A    between atoms: _1  and  _3
REMARK    2  A    between atoms: _3  and  _4
REMARK    3  A    between atoms: _3  and  _6
REMARK    4  A    between atoms: _6  and  _7
REMARK    5  A    between atoms: _7  and  _8
REMARK    6  A    between atoms: _13  and  _15
REMARK    7  A    between atoms: _15  and  _16
REMARK    8  A    between atoms: _15  and  _18
REMARK    9  A    between atoms: _18  and  _19
REMARK   10  A    between atoms: _19  and  _20
REMARK   11  A    between atoms: _22  and  _24
REMARK   12  A    between atoms: _24  and  _25
REMARK   13  A    between atoms: _24  and  _27
REMARK   14  A    between atoms: _27  and  _28
REMARK   15  A    between atoms: _28  and  _29
REMARK   16  A    between atoms: _34  and  _36
REMARK   17  A    between atoms: _36  and  _37
REMARK   18  A    between atoms: _40  and  _42
REMARK   19  A    between atoms: _42  and  _43
REMARK   20  A    between atoms: _42  and  _45
REMARK   21  A    between atoms: _45  and  _46
REMARK   22  A    between atoms: _51  and  _52
REMARK   23  A    between atoms: _54  and  _56
REMARK   24  A    between atoms: _56  and  _57
REMARK   25  A    between atoms: _56  and  _59
REMARK   26  A    between atoms: _59  and  _60
REMARK   27  A    between atoms: _63  and  _65
REMARK   28  A    between atoms: _65  and  _66
REMARK   29  A    between atoms: _65  and  _68
REMARK   30  A    between atoms: _68  and  _69
REMARK   31  A    between atoms: _75  and  _77
REMARK   32  A    between atoms: _77  and  _78
REMARK   33  A    between atoms: _77  and  _80
REMARK   34  A    between atoms: _80  and  _81
REMARK   35  A    between atoms: _86  and  _88
REMARK   36  A    between atoms: _88  and  _89
REMARK   37  A    between atoms: _92  and  _94
REMARK   38  A    between atoms: _94  and  _95
REMARK   39  A    between atoms: _97  and  _99
REMARK   40  A    between atoms: _99  and  _100
REMARK   41  A    between atoms: _103  and  _105
REMARK   42  A    between atoms: _105  and  _106
REMARK   43  A    between atoms: _105  and  _108
REMARK   44  A    between atoms: _108  and  _109
REMARK   45  A    between atoms: _109  and  _110
REMARK   46  A    between atoms: _112  and  _114
REMARK   47  A    between atoms: _114  and  _115
REMARK   48  A    between atoms: _114  and  _117
REMARK   49  A    between atoms: _117  and  _118
REMARK   50  A    between atoms: _118  and  _119
REMARK   51  A    between atoms: _122  and  _124
REMARK   52  A    between atoms: _124  and  _125
REMARK   53  A    between atoms: _124  and  _127
REMARK   54  A    between atoms: _127  and  _128
REMARK   55  A    between atoms: _133  and  _135
REMARK   56  A    between atoms: _135  and  _136
REMARK   57  A    between atoms: _135  and  _138
REMARK   58  A    between atoms: _138  and  _139
REMARK   59  A    between atoms: _142  and  _144
REMARK   60  A    between atoms: _144  and  _145
REMARK   61  A    between atoms: _144  and  _147
REMARK   62  A    between atoms: _147  and  _148
REMARK   63  A    between atoms: _153  and  _154
REMARK   64  A    between atoms: _156  and  _158
REMARK   65  A    between atoms: _158  and  _159
REMARK   66  A    between atoms: _158  and  _161
REMARK   67  A    between atoms: _161  and  _162
REMARK   68  A    between atoms: _162  and  _163
REMARK   69  A    between atoms: _163  and  _164
REMARK   70  A    between atoms: _173  and  _175
REMARK   71  A    between atoms: _175  and  _176
REMARK   72  A    between atoms: _175  and  _178
REMARK   73  A    between atoms: _178  and  _179
REMARK   74  A    between atoms: _184  and  _186
REMARK   75  A    between atoms: _186  and  _187
REMARK   76  A    between atoms: _186  and  _189
REMARK   77  A    between atoms: _189  and  _190
REMARK   78  A    between atoms: _192  and  _194
REMARK   79  A    between atoms: _194  and  _195
REMARK   80  A    between atoms: _194  and  _197
REMARK   81  A    between atoms: _197  and  _198
REMARK   82  A    between atoms: _200  and  _202
REMARK   83  A    between atoms: _202  and  _203
REMARK   84  A    between atoms: _202  and  _205
REMARK   85  A    between atoms: _205  and  _206
REMARK   86  A    between atoms: _206  and  _207
REMARK   87  A    between atoms: _210  and  _212
REMARK   88  A    between atoms: _212  and  _213
REMARK   89  A    between atoms: _212  and  _215
REMARK   90  A    between atoms: _215  and  _216
REMARK   91  A    between atoms: _216  and  _217
REMARK   92  A    between atoms: _217  and  _218
REMARK   93  A    between atoms: _227  and  _229
REMARK   94  A    between atoms: _229  and  _230
REMARK   95  A    between atoms: _229  and  _232
REMARK   96  A    between atoms: _235  and  _237
REMARK   97  A    between atoms: _237  and  _238
REMARK   98  A    between atoms: _237  and  _240
REMARK   99  A    between atoms: _240  and  _241
REMARK  100  A    between atoms: _244  and  _246
REMARK  101  A    between atoms: _246  and  _247
REMARK  102  A    between atoms: _246  and  _249
REMARK  103  A    between atoms: _252  and  _254
REMARK  104  A    between atoms: _254  and  _255
REMARK  105  A    between atoms: _254  and  _257
REMARK  106  A    between atoms: _257  and  _258
REMARK  107  A    between atoms: _261  and  _263
REMARK  108  A    between atoms: _263  and  _264
REMARK  109  A    between atoms: _267  and  _269
REMARK  110  A    between atoms: _269  and  _270
REMARK  111  A    between atoms: _269  and  _272
REMARK  112  A    between atoms: _272  and  _273
REMARK  113  A    between atoms: _278  and  _280
REMARK  114  A    between atoms: _280  and  _281
REMARK  115  A    between atoms: _280  and  _283
REMARK  116  A    between atoms: _283  and  _284
REMARK  117  A    between atoms: _284  and  _285
REMARK  118  A    between atoms: _288  and  _290
REMARK  119  A    between atoms: _290  and  _291
REMARK  120  A    between atoms: _290  and  _293
REMARK  121  A    between atoms: _293  and  _294
REMARK  122  A    between atoms: _299  and  _301
REMARK  123  A    between atoms: _301  and  _302
REMARK  124  A    between atoms: _301  and  _304
REMARK  125  A    between atoms: _304  and  _305
REMARK  126  A    between atoms: _315  and  _317
REMARK  127  A    between atoms: _317  and  _318
REMARK  128  A    between atoms: _317  and  _320
REMARK  129  A    between atoms: _320  and  _321
REMARK  130  A    between atoms: _324  and  _326
REMARK  131  A    between atoms: _326  and  _327
REMARK  132  A    between atoms: _326  and  _329
REMARK  133  A    between atoms: _329  and  _330
REMARK  134  A    between atoms: _335  and  _337
REMARK  135  A    between atoms: _337  and  _338
REMARK  136  A    between atoms: _337  and  _340
REMARK  137  A    between atoms: _340  and  _341
REMARK  138  A    between atoms: _341  and  _342
REMARK  139  A    between atoms: _345  and  _347
REMARK  140  A    between atoms: _347  and  _348
REMARK  141  A    between atoms: _351  and  _353
REMARK  142  A    between atoms: _353  and  _354
REMARK  143  A    between atoms: _353  and  _356
REMARK  144  A    between atoms: _356  and  _357
REMARK  145  A    between atoms: _359  and  _361
REMARK  146  A    between atoms: _361  and  _362
REMARK  147  A    between atoms: _361  and  _364
REMARK  148  A    between atoms: _364  and  _365
REMARK  149  A    between atoms: _365  and  _366
REMARK  150  A    between atoms: _369  and  _371
REMARK  151  A    between atoms: _371  and  _372
REMARK  152  A    between atoms: _371  and  _374
REMARK  153  A    between atoms: _374  and  _375
REMARK  154  A    between atoms: _380  and  _381
REMARK  155  A    between atoms: _383  and  _385
REMARK  156  A    between atoms: _385  and  _386
REMARK  157  A    between atoms: _385  and  _388
REMARK  158  A    between atoms: _388  and  _389
REMARK  159  A    between atoms: _392  and  _394
REMARK  160  A    between atoms: _394  and  _395
REMARK  161  A    between atoms: _394  and  _397
REMARK  162  A    between atoms: _397  and  _398
REMARK  163  A    between atoms: _403  and  _405
REMARK  164  A    between atoms: _405  and  _406
REMARK  165  A    between atoms: _405  and  _408
REMARK  166  A    between atoms: _408  and  _409
REMARK  167  A    between atoms: _412  and  _414
REMARK  168  A    between atoms: _414  and  _415
REMARK  169  A    between atoms: _414  and  _417
REMARK  170  A    between atoms: _417  and  _418
REMARK  171  A    between atoms: _423  and  _424
REMARK  172  A    between atoms: _426  and  _428
REMARK  173  A    between atoms: _428  and  _429
REMARK  174  A    between atoms: _428  and  _431
REMARK  175  A    between atoms: _431  and  _432
REMARK  176  A    between atoms: _432  and  _433
REMARK  177  A    between atoms: _433  and  _434
REMARK  178  A    between atoms: _443  and  _445
REMARK  179  A    between atoms: _445  and  _446
REMARK  180  A    between atoms: _445  and  _448
REMARK  181  A    between atoms: _451  and  _453
REMARK  182  A    between atoms: _453  and  _454
REMARK  183  A    between atoms: _457  and  _459
REMARK  184  A    between atoms: _459  and  _460
REMARK  185  A    between atoms: _459  and  _462
REMARK  186  A    between atoms: _465  and  _467
REMARK  187  A    between atoms: _467  and  _468
REMARK  188  A    between atoms: _467  and  _470
REMARK  189  A    between atoms: _470  and  _471
REMARK  190  A    between atoms: _473  and  _475
REMARK  191  A    between atoms: _475  and  _476
REMARK  192  A    between atoms: _475  and  _478
REMARK  193  A    between atoms: _478  and  _479
REMARK  194  A    between atoms: _479  and  _480
REMARK  195  A    between atoms: _483  and  _485
REMARK  196  A    between atoms: _485  and  _486
REMARK  197  A    between atoms: _485  and  _488
REMARK  198  A    between atoms: _488  and  _489
REMARK  199  A    between atoms: _492  and  _494
REMARK  200  A    between atoms: _494  and  _495
REMARK  201  A    between atoms: _494  and  _497
REMARK  202  A    between atoms: _497  and  _498
REMARK  203  A    between atoms: _504  and  _506
REMARK  204  A    between atoms: _506  and  _507
REMARK  205  A    between atoms: _506  and  _509
REMARK  206  A    between atoms: _509  and  _510
REMARK  207  A    between atoms: _513  and  _515
REMARK  208  A    between atoms: _515  and  _516
REMARK  209  A    between atoms: _519  and  _521
REMARK  210  A    between atoms: _521  and  _522
REMARK  211  A    between atoms: _521  and  _524
REMARK  212  A    between atoms: _524  and  _525
REMARK  213  A    between atoms: _530  and  _531
REMARK  214  A    between atoms: _533  and  _535
REMARK  215  A    between atoms: _535  and  _536
REMARK  216  A    between atoms: _535  and  _538
REMARK  217  A    between atoms: _538  and  _539
REMARK  218  A    between atoms: _541  and  _543
REMARK  219  A    between atoms: _543  and  _544
REMARK  220  A    between atoms: _543  and  _546
REMARK  221  A    between atoms: _546  and  _547
REMARK  222  A    between atoms: _550  and  _552
REMARK  223  A    between atoms: _552  and  _553
REMARK  224  A    between atoms: _552  and  _555
REMARK  225  A    between atoms: _555  and  _556
REMARK  226  A    between atoms: _558  and  _560
REMARK  227  A    between atoms: _560  and  _561
REMARK  228  A    between atoms: _560  and  _563
REMARK  229  A    between atoms: _563  and  _564
REMARK  230  A    between atoms: _567  and  _569
REMARK  231  A    between atoms: _569  and  _570
REMARK  232  A    between atoms: _569  and  _572
REMARK  233  A    between atoms: _572  and  _573
REMARK  234  A    between atoms: _575  and  _577
REMARK  235  A    between atoms: _577  and  _578
REMARK  236  A    between atoms: _577  and  _580
REMARK  237  A    between atoms: _580  and  _581
REMARK  238  A    between atoms: _584  and  _586
REMARK  239  A    between atoms: _586  and  _587
REMARK  240  A    between atoms: _586  and  _589
REMARK  241  A    between atoms: _589  and  _590
REMARK  242  A    between atoms: _595  and  _597
REMARK  243  A    between atoms: _597  and  _598
REMARK  244  A    between atoms: _597  and  _600
REMARK  245  A    between atoms: _600  and  _601
REMARK  246  A    between atoms: _603  and  _605
REMARK  247  A    between atoms: _605  and  _606
REMARK  248  A    between atoms: _605  and  _608
REMARK  249  A    between atoms: _608  and  _609
REMARK  250  A    between atoms: _615  and  _617
REMARK  251  A    between atoms: _617  and  _618
REMARK  252  A    between atoms: _617  and  _620
REMARK  253  A    between atoms: _620  and  _621
REMARK  254  A    between atoms: _623  and  _625
REMARK  255  A    between atoms: _625  and  _626
REMARK  256  A    between atoms: _625  and  _628
REMARK  257  A    between atoms: _628  and  _629
REMARK  258  A    between atoms: _635  and  _637
REMARK  259  A    between atoms: _637  and  _638
REMARK  260  A    between atoms: _637  and  _640
REMARK  261  A    between atoms: _640  and  _641
REMARK  262  A    between atoms: _643  and  _645
REMARK  263  A    between atoms: _645  and  _646
REMARK  264  A    between atoms: _645  and  _648
REMARK  265  A    between atoms: _648  and  _649
REMARK  266  A    between atoms: _654  and  _656
REMARK  267  A    between atoms: _656  and  _657
REMARK  268  A    between atoms: _656  and  _659
REMARK  269  A    between atoms: _659  and  _660
REMARK  270  A    between atoms: _663  and  _665
REMARK  271  A    between atoms: _665  and  _666
REMARK  272  A    between atoms: _665  and  _668
REMARK  273  A    between atoms: _668  and  _669
REMARK  274  A    between atoms: _672  and  _674
REMARK  275  A    between atoms: _674  and  _675
REMARK  276  A    between atoms: _674  and  _677
REMARK  277  A    between atoms: _677  and  _678
REMARK  278  A    between atoms: _678  and  _679
REMARK  279  A    between atoms: _684  and  _686
REMARK  280  A    between atoms: _686  and  _687
REMARK  281  A    between atoms: _690  and  _692
REMARK  282  A    between atoms: _692  and  _693
REMARK  283  A    between atoms: _692  and  _695
REMARK  284  A    between atoms: _698  and  _700
REMARK  285  A    between atoms: _700  and  _701
REMARK  286  A    between atoms: _700  and  _703
REMARK  287  A    between atoms: _703  and  _704
REMARK  288  A    between atoms: _707  and  _709
REMARK  289  A    between atoms: _709  and  _710
REMARK  290  A    between atoms: _709  and  _712
REMARK  291  A    between atoms: _712  and  _713
REMARK  292  A    between atoms: _713  and  _714
REMARK  293  A    between atoms: _714  and  _715
REMARK  294  A    between atoms: _724  and  _726
REMARK  295  A    between atoms: _726  and  _727
REMARK  296  A    between atoms: _726  and  _729
REMARK  297  A    between atoms: _729  and  _730
REMARK  298  A    between atoms: _730  and  _731
REMARK  299  A    between atoms: _731  and  _732
REMARK  300  A    between atoms: _732  and  _733
REMARK                            x       y       z     vdW  Elec       q    Type
REMARK                         _______ _______ _______ _____ _____    ______ ____
ROOT
ATOM      1  CB  HIS A   1     113.789  25.529  19.871  0.00  0.00    +0.072 C 
ENDROOT
BRANCH   1   2
ATOM      2  CG  HIS A   1     112.399  25.200  20.309  0.00  0.00    +0.082 A 
ATOM      3  ND1 HIS A   1     111.771  25.848  21.349  0.00  0.00    -0.227 NA
ATOM      4  CE1 HIS A   1     110.573  25.318  21.534  0.00  0.00    +0.199 A 
ATOM      5  NE2 HIS A   1     110.398  24.354  20.646  0.00  0.00    -0.221 NA
ATOM      6  CD2 HIS A   1     111.520  24.261  19.862  0.00  0.00    +0.115 A 
ENDBRANCH   1   2
BRANCH   1   7
ATOM      7  CA  HIS A   1     114.034  27.016  19.566  0.00  0.00    +0.139 C 
BRANCH   7   8
ATOM      8  N   HIS A   1     113.627  27.416  18.216  0.00  0.00    -0.239 NA
ATOM      9  H   HIS A   1     113.270  26.700  17.551  0.00  0.00    +0.142 HD
ENDBRANCH   7   8
BRANCH   7  10
ATOM     10  C   HIS A   1     115.489  27.267  19.905  0.00  0.00    +0.224 C 
ATOM     11  O   HIS A   1     115.796  27.321  21.076  0.00  0.00    -0.287 OA
ENDBRANCH   7  10
ENDBRANCH   1   7
TORSDOF 4
REMARK  Name = ../refined-set-2016/4fys/4fys_pocket.pdb
REMARK  300 active torsions:
REMARK  status: ('A' for Active; 'I' for Inactive)
REMARK    1  A    between atoms: _1  and  _3
REMARK    2  A    between atoms: _3  and  _4
REMARK    3  A    between atoms: _3  and  _6
REMARK    4  A    between atoms: _6  and  _7
REMARK    5  A    between atoms: _7  and  _8
REMARK    6  A    between atoms: _13  and  _15
REMARK    7  A    between atoms: _15  and  _16
REMARK    8  A    between atoms: _15  and  _18
REMARK    9  A    between atoms: _18  and  _19
REMARK   10  A    between atoms: _19  and  _20
REMARK   11  A    between atoms: _22  and  _24
REMARK   12  A    between atoms: _24  and  _25
REMARK   13  A    between atoms: _24  and  _27
REMARK   14  A    between atoms: _27  and  _28
REMARK   15  A    between atoms: _28  and  _29
REMARK   16  A    between atoms: _34  and  _36
REMARK   17  A    between atoms: _36  and  _37
REMARK   18  A    between atoms: _40  and  _42
REMARK   19  A    between atoms: _42  and  _43
REMARK   20  A    between atoms: _42  and  _45
REMARK   21  A    between atoms: _45  and  _46
REMARK   22  A    between atoms: _51  and  _52
REMARK   23  A    between atoms: _54  and  _56
REMARK   24  A    between atoms: _56  and  _57
REMARK   25  A    between atoms: _56  and  _59
REMARK   26  A    between atoms: _59  and  _60
REMARK   27  A    between atoms: _63  and  _65
REMARK   28  A    between atoms: _65  and  _66
REMARK   29  A    between atoms: _65  and  _68
REMARK   30  A    between atoms: _68  and  _69
REMARK   31  A    between atoms: _75  and  _77
REMARK   32  A    between atoms: _77  and  _78
REMARK   33  A    between atoms: _77  and  _80
REMARK   34  A    between atoms: _80  and  _81
REMARK   35  A    between atoms: _86  and  _88
REMARK   36  A    between atoms: _88  and  _89
REMARK   37  A    between atoms: _92  and  _94
REMARK   38  A    between atoms: _94  and  _95
REMARK   39  A    between atoms: _97  and  _99
REMARK   40  A    between atoms: _99  and  _100
REMARK   41  A    between atoms: _103  and  _105
REMARK   42  A    between atoms: _105  and  _106
REMARK   43  A    between atoms: _105  and  _108
REMARK   44  A    between atoms: _108  and  _109
REMARK   45  A    between atoms: _109  and  _110
REMARK   46  A    between atoms: _112  and  _114
REMARK   47  A    between atoms: _114  and  _115
REMARK   48  A    between atoms: _114  and  _117
REMARK   49  A    between atoms: _117  and  _118
REMARK   50  A    between atoms: _118  and  _119
REMARK   51  A    between atoms: _122  and  _124
REMARK   52  A    between atoms: _124  and  _125
REMARK   53  A    between atoms: _124  and  _127
REMARK   54  A    between atoms: _127  and  _128
REMARK   55  A    between atoms: _133  and  _135
REMARK   56  A    between atoms: _135  and  _136
REMARK   57  A    between atoms: _135  and  _138
REMARK   58  A    between atoms: _138  and  _139
REMARK   59  A    between atoms: _142  and  _144
REMARK   60  A    between atoms: _144  and  _145
REMARK   61  A    between atoms: _144  and  _147
REMARK   62  A    between atoms: _147  and  _148
REMARK   63  A    between atoms: _153  and  _154
REMARK   64  A    between atoms: _156  and  _158
REMARK   65  A    between atoms: _158  and  _159
REMARK   66  A    between atoms: _158  and  _161
REMARK   67  A    between atoms: _161  and  _162
REMARK   68  A    between atoms: _162  and  _163
REMARK   69  A    between atoms: _163  and  _164
REMARK   70  A    between atoms: _173  and  _175
REMARK   71  A    between atoms: _175  and  _176
REMARK   72  A    between atoms: _175  and  _178
REMARK   73  A    between atoms: _178  and  _179
REMARK   74  A    between atoms: _184  and  _186
REMARK   75  A    between atoms: _186  and  _187
REMARK   76  A    between atoms: _186  and  _189
REMARK   77  A    between atoms: _189  and  _190
REMARK   78  A    between atoms: _192  and  _194
REMARK   79  A    between atoms: _194  and  _195
REMARK   80  A    between atoms: _194  and  _197
REMARK   81  A    between atoms: _197  and  _198
REMARK   82  A    between atoms: _200  and  _202
REMARK   83  A    between atoms: _202  and  _203
REMARK   84  A    between atoms: _202  and  _205
REMARK   85  A    between atoms: _205  and  _206
REMARK   86  A    between atoms: _206  and  _207
REMARK   87  A    between atoms: _210  and  _212
REMARK   88  A    between atoms: _212  and  _213
REMARK   89  A    between atoms: _212  and  _215
REMARK   90  A    between atoms: _215  and  _216
REMARK   91  A    between atoms: _216  and  _217
REMARK   92  A    between atoms: _217  and  _218
REMARK   93  A    between atoms: _227  and  _229
REMARK   94  A    between atoms: _229  and  _230
REMARK   95  A    between atoms: _229  and  _232
REMARK   96  A    between atoms: _235  and  _237
REMARK   97  A    between atoms: _237  and  _238
REMARK   98  A    between atoms: _237  and  _240
REMARK   99  A    between atoms: _240  and  _241
REMARK  100  A    between atoms: _244  and  _246
REMARK  101  A    between atoms: _246  and  _247
REMARK  102  A    between atoms: _246  and  _249
REMARK  103  A    between atoms: _252  and  _254
REMARK  104  A    between atoms: _254  and  _255
REMARK  105  A    between atoms: _254  and  _257
REMARK  106  A    between atoms: _257  and  _258
REMARK  107  A    between atoms: _261  and  _263
REMARK  108  A    between atoms: _263  and  _264
REMARK  109  A    between atoms: _267  and  _269
REMARK  110  A    between atoms: _269  and  _270
REMARK  111  A    between atoms: _269  and  _272
REMARK  112  A    between atoms: _272  and  _273
REMARK  113  A    between atoms: _278  and  _280
REMARK  114  A    between atoms: _280  and  _281
REMARK  115  A    between atoms: _280  and  _283
REMARK  116  A    between atoms: _283  and  _284
REMARK  117  A    between atoms: _284  and  _285
REMARK  118  A    between atoms: _288  and  _290
REMARK  119  A    between atoms: _290  and  _291
REMARK  120  A    between atoms: _290  and  _293
REMARK  121  A    between atoms: _293  and  _294
REMARK  122  A    between atoms: _299  and  _301
REMARK  123  A    between atoms: _301  and  _302
REMARK  124  A    between atoms: _301  and  _304
REMARK  125  A    between atoms: _304  and  _305
REMARK  126  A    between atoms: _315  and  _317
REMARK  127  A    between atoms: _317  and  _318
REMARK  128  A    between atoms: _317  and  _320
REMARK  129  A    between atoms: _320  and  _321
REMARK  130  A    between atoms: _324  and  _326
REMARK  131  A    between atoms: _326  and  _327
REMARK  132  A    between atoms: _326  and  _329
REMARK  133  A    between atoms: _329  and  _330
REMARK  134  A    between atoms: _335  and  _337
REMARK  135  A    between atoms: _337  and  _338
REMARK  136  A    between atoms: _337  and  _340
REMARK  137  A    between atoms: _340  and  _341
REMARK  138  A    between atoms: _341  and  _342
REMARK  139  A    between atoms: _345  and  _347
REMARK  140  A    between atoms: _347  and  _348
REMARK  141  A    between atoms: _351  and  _353
REMARK  142  A    between atoms: _353  and  _354
REMARK  143  A    between atoms: _353  and  _356
REMARK  144  A    between atoms: _356  and  _357
REMARK  145  A    between atoms: _359  and  _361
REMARK  146  A    between atoms: _361  and  _362
REMARK  147  A    between atoms: _361  and  _364
REMARK  148  A    between atoms: _364  and  _365
REMARK  149  A    between atoms: _365  and  _366
REMARK  150  A    between atoms: _369  and  _371
REMARK  151  A    between atoms: _371  and  _372
REMARK  152  A    between atoms: _371  and  _374
REMARK  153  A    between atoms: _374  and  _375
REMARK  154  A    between atoms: _380  and  _381
REMARK  155  A    between atoms: _383  and  _385
REMARK  156  A    between atoms: _385  and  _386
REMARK  157  A    between atoms: _385  and  _388
REMARK  158  A    between atoms: _388  and  _389
REMARK  159  A    between atoms: _392  and  _394
REMARK  160  A    between atoms: _394  and  _395
REMARK  161  A    between atoms: _394  and  _397
REMARK  162  A    between atoms: _397  and  _398
REMARK  163  A    between atoms: _403  and  _405
REMARK  164  A    between atoms: _405  and  _406
REMARK  165  A    between atoms: _405  and  _408
REMARK  166  A    between atoms: _408  and  _409
REMARK  167  A    between atoms: _412  and  _414
REMARK  168  A    between atoms: _414  and  _415
REMARK  169  A    between atoms: _414  and  _417
REMARK  170  A    between atoms: _417  and  _418
REMARK  171  A    between atoms: _423  and  _424
REMARK  172  A    between atoms: _426  and  _428
REMARK  173  A    between atoms: _428  and  _429
REMARK  174  A    between atoms: _428  and  _431
REMARK  175  A    between atoms: _431  and  _432
REMARK  176  A    between atoms: _432  and  _433
REMARK  177  A    between atoms: _433  and  _434
REMARK  178  A    between atoms: _443  and  _445
REMARK  179  A    between atoms: _445  and  _446
REMARK  180  A    between atoms: _445  and  _448
REMARK  181  A    between atoms: _451  and  _453
REMARK  182  A    between atoms: _453  and  _454
REMARK  183  A    between atoms: _457  and  _459
REMARK  184  A    between atoms: _459  and  _460
REMARK  185  A    between atoms: _459  and  _462
REMARK  186  A    between atoms: _465  and  _467
REMARK  187  A    between atoms: _467  and  _468
REMARK  188  A    between atoms: _467  and  _470
REMARK  189  A    between atoms: _470  and  _471
REMARK  190  A    between atoms: _473  and  _475
REMARK  191  A    between atoms: _475  and  _476
REMARK  192  A    between atoms: _475  and  _478
REMARK  193  A    between atoms: _478  and  _479
REMARK  194  A    between atoms: _479  and  _480
REMARK  195  A    between atoms: _483  and  _485
REMARK  196  A    between atoms: _485  and  _486
REMARK  197  A    between atoms: _485  and  _488
REMARK  198  A    between atoms: _488  and  _489
REMARK  199  A    between atoms: _492  and  _494
REMARK  200  A    between atoms: _494  and  _495
REMARK  201  A    between atoms: _494  and  _497
REMARK  202  A    between atoms: _497  and  _498
REMARK  203  A    between atoms: _504  and  _506
REMARK  204  A    between atoms: _506  and  _507
REMARK  205  A    between atoms: _506  and  _509
REMARK  206  A    between atoms: _509  and  _510
REMARK  207  A    between atoms: _513  and  _515
REMARK  208  A    between atoms: _515  and  _516
REMARK  209  A    between atoms: _519  and  _521
REMARK  210  A    between atoms: _521  and  _522
REMARK  211  A    between atoms: _521  and  _524
REMARK  212  A    between atoms: _524  and  _525
REMARK  213  A    between atoms: _530  and  _531
REMARK  214  A    between atoms: _533  and  _535
REMARK  215  A    between atoms: _535  and  _536
REMARK  216  A    between atoms: _535  and  _538
REMARK  217  A    between atoms: _538  and  _539
REMARK  218  A    between atoms: _541  and  _543
REMARK  219  A    between atoms: _543  and  _544
REMARK  220  A    between atoms: _543  and  _546
REMARK  221  A    between atoms: _546  and  _547
REMARK  222  A    between atoms: _550  and  _552
REMARK  223  A    between atoms: _552  and  _553
REMARK  224  A    between atoms: _552  and  _555
REMARK  225  A    between atoms: _555  and  _556
REMARK  226  A    between atoms: _558  and  _560
REMARK  227  A    between atoms: _560  and  _561
REMARK  228  A    between atoms: _560  and  _563
REMARK  229  A    between atoms: _563  and  _564
REMARK  230  A    between atoms: _567  and  _569
REMARK  231  A    between atoms: _569  and  _570
REMARK  232  A    between atoms: _569  and  _572
REMARK  233  A    between atoms: _572  and  _573
REMARK  234  A    between atoms: _575  and  _577
REMARK  235  A    between atoms: _577  and  _578
REMARK  236  A    between atoms: _577  and  _580
REMARK  237  A    between atoms: _580  and  _581
REMARK  238  A    between atoms: _584  and  _586
REMARK  239  A    between atoms: _586  and  _587
REMARK  240  A    between atoms: _586  and  _589
REMARK  241  A    between atoms: _589  and  _590
REMARK  242  A    between atoms: _595  and  _597
REMARK  243  A    between atoms: _597  and  _598
REMARK  244  A    between atoms: _597  and  _600
REMARK  245  A    between atoms: _600  and  _601
REMARK  246  A    between atoms: _603  and  _605
REMARK  247  A    between atoms: _605  and  _606
REMARK  248  A    between atoms: _605  and  _608
REMARK  249  A    between atoms: _608  and  _609
REMARK  250  A    between atoms: _615  and  _617
REMARK  251  A    between atoms: _617  and  _618
REMARK  252  A    between atoms: _617  and  _620
REMARK  253  A    between atoms: _620  and  _621
REMARK  254  A    between atoms: _623  and  _625
REMARK  255  A    between atoms: _625  and  _626
REMARK  256  A    between atoms: _625  and  _628
REMARK  257  A    between atoms: _628  and  _629
REMARK  258  A    between atoms: _635  and  _637
REMARK  259  A    between atoms: _637  and  _638
REMARK  260  A    between atoms: _637  and  _640
REMARK  261  A    between atoms: _640  and  _641
REMARK  262  A    between atoms: _643  and  _645
REMARK  263  A    between atoms: _645  and  _646
REMARK  264  A    between atoms: _645  and  _648
REMARK  265  A    between atoms: _648  and  _649
REMARK  266  A    between atoms: _654  and  _656
REMARK  267  A    between atoms: _656  and  _657
REMARK  268  A    between atoms: _656  and  _659
REMARK  269  A    between atoms: _659  and  _660
REMARK  270  A    between atoms: _663  and  _665
REMARK  271  A    between atoms: _665  and  _666
REMARK  272  A    between atoms: _665  and  _668
REMARK  273  A    between atoms: _668  and  _669
REMARK  274  A    between atoms: _672  and  _674
REMARK  275  A    between atoms: _674  and  _675
REMARK  276  A    between atoms: _674  and  _677
REMARK  277  A    between atoms: _677  and  _678
REMARK  278  A    between atoms: _678  and  _679
REMARK  279  A    between atoms: _684  and  _686
REMARK  280  A    between atoms: _686  and  _687
REMARK  281  A    between atoms: _690  and  _692
REMARK  282  A    between atoms: _692  and  _693
REMARK  283  A    between atoms: _692  and  _695
REMARK  284  A    between atoms: _698  and  _700
REMARK  285  A    between atoms: _700  and  _701
REMARK  286  A    between atoms: _700  and  _703
REMARK  287  A    between atoms: _703  and  _704
REMARK  288  A    between atoms: _707  and  _709
REMARK  289  A    between atoms: _709  and  _710
REMARK  290  A    between atoms: _709  and  _712
REMARK  291  A    between atoms: _712  and  _713
REMARK  292  A    between atoms: _713  and  _714
REMARK  293  A    between atoms: _714  and  _715
REMARK  294  A    between atoms: _724  and  _726
REMARK  295  A    between atoms: _726  and  _727
REMARK  296  A    between atoms: _726  and  _729
REMARK  297  A    between atoms: _729  and  _730
REMARK  298  A    between atoms: _730  and  _731
REMARK  299  A    between atoms: _731  and  _732
REMARK  300  A    between atoms: _732  and  _733
REMARK                            x       y       z     vdW  Elec       q    Type
REMARK                         _______ _______ _______ _____ _____    ______ ____
ROOT
ATOM      1  CG  TRP A   1     108.833  21.537  32.814  0.00  0.00    -0.002 A 
ATOM      2  CD1 TRP A   1     109.469  20.891  33.850  0.00  0.00    +0.068 A 
ATOM      3  NE1 TRP A   1     110.638  20.326  33.413  0.00  0.00    -0.352 N 
ATOM      4  HE1 TRP A   1     111.304  19.786  34.002  0.00  0.00    +0.166 HD
ATOM      5  CE2 TRP A   1     110.789  20.585  32.080  0.00  0.00    +0.056 A 
ATOM      6  CZ2 TRP A   1     111.818  20.216  31.201  0.00  0.00    +0.017 A 
ATOM      7  CH2 TRP A   1     111.702  20.607  29.892  0.00  0.00    +0.001 A 
ATOM      8  CZ3 TRP A   1     110.605  21.374  29.446  0.00  0.00    +0.000 A 
ATOM      9  CE3 TRP A   1     109.572  21.736  30.316  0.00  0.00    +0.001 A 
ATOM     10  CD2 TRP A   1     109.671  21.364  31.668  0.00  0.00    +0.013 A 
ENDROOT
BRANCH   1  11
ATOM     11  CB  TRP A   1     107.543  22.262  32.890  0.00  0.00    +0.053 C 
BRANCH  11  12
ATOM     12  CA  TRP A   1     107.720  23.786  32.780  0.00  0.00    +0.137 C 
BRANCH  12  13
ATOM     13  N   TRP A   1     108.681  24.203  33.796  0.00  0.00    -0.239 NA
ATOM     14  H   TRP A   1     109.003  23.496  34.487  0.00  0.00    +0.142 HD
ENDBRANCH  12  13
BRANCH  12  15
ATOM     15  C   TRP A   1     106.358  24.458  32.821  0.00  0.00    +0.224 C 
ATOM     16  O   TRP A   1     105.632  24.425  31.823  0.00  0.00    -0.287 OA
ENDBRANCH  12  15
ENDBRANCH  11  12
ENDBRANCH   1  11
TORSDOF 4
REMARK  Name = ../refined-set-2016/4fys/4fys_pocket.pdb
REMARK  300 active torsions:
REMARK  status: ('A' for Active; 'I' for Inactive)
REMARK    1  A    between atoms: _1  and  _3
REMARK    2  A    between atoms: _3  and  _4
REMARK    3  A    between atoms: _3  and  _6
REMARK    4  A    between atoms: _6  and  _7
REMARK    5  A    between atoms: _7  and  _8
REMARK    6  A    between atoms: _13  and  _15
REMARK    7  A    between atoms: _15  and  _16
REMARK    8  A    between atoms: _15  and  _18
REMARK    9  A    between atoms: _18  and  _19
REMARK   10  A    between atoms: _19  and  _20
REMARK   11  A    between atoms: _22  and  _24
REMARK   12  A    between atoms: _24  and  _25
REMARK   13  A    between atoms: _24  and  _27
REMARK   14  A    between atoms: _27  and  _28
REMARK   15  A    between atoms: _28  and  _29
REMARK   16  A    between atoms: _34  and  _36
REMARK   17  A    between atoms: _36  and  _37
REMARK   18  A    between atoms: _40  and  _42
REMARK   19  A    between atoms: _42  and  _43
REMARK   20  A    between atoms: _42  and  _45
REMARK   21  A    between atoms: _45  and  _46
REMARK   22  A    between atoms: _51  and  _52
REMARK   23  A    between atoms: _54  and  _56
REMARK   24  A    between atoms: _56  and  _57
REMARK   25  A    between atoms: _56  and  _59
REMARK   26  A    between atoms: _59  and  _60
REMARK   27  A    between atoms: _63  and  _65
REMARK   28  A    between atoms: _65  and  _66
REMARK   29  A    between atoms: _65  and  _68
REMARK   30  A    between atoms: _68  and  _69
REMARK   31  A    between atoms: _75  and  _77
REMARK   32  A    between atoms: _77  and  _78
REMARK   33  A    between atoms: _77  and  _80
REMARK   34  A    between atoms: _80  and  _81
REMARK   35  A    between atoms: _86  and  _88
REMARK   36  A    between atoms: _88  and  _89
REMARK   37  A    between atoms: _92  and  _94
REMARK   38  A    between atoms: _94  and  _95
REMARK   39  A    between atoms: _97  and  _99
REMARK   40  A    between atoms: _99  and  _100
REMARK   41  A    between atoms: _103  and  _105
REMARK   42  A    between atoms: _105  and  _106
REMARK   43  A    between atoms: _105  and  _108
REMARK   44  A    between atoms: _108  and  _109
REMARK   45  A    between atoms: _109  and  _110
REMARK   46  A    between atoms: _112  and  _114
REMARK   47  A    between atoms: _114  and  _115
REMARK   48  A    between atoms: _114  and  _117
REMARK   49  A    between atoms: _117  and  _118
REMARK   50  A    between atoms: _118  and  _119
REMARK   51  A    between atoms: _122  and  _124
REMARK   52  A    between atoms: _124  and  _125
REMARK   53  A    between atoms: _124  and  _127
REMARK   54  A    between atoms: _127  and  _128
REMARK   55  A    between atoms: _133  and  _135
REMARK   56  A    between atoms: _135  and  _136
REMARK   57  A    between atoms: _135  and  _138
REMARK   58  A    between atoms: _138  and  _139
REMARK   59  A    between atoms: _142  and  _144
REMARK   60  A    between atoms: _144  and  _145
REMARK   61  A    between atoms: _144  and  _147
REMARK   62  A    between atoms: _147  and  _148
REMARK   63  A    between atoms: _153  and  _154
REMARK   64  A    between atoms: _156  and  _158
REMARK   65  A    between atoms: _158  and  _159
REMARK   66  A    between atoms: _158  and  _161
REMARK   67  A    between atoms: _161  and  _162
REMARK   68  A    between atoms: _162  and  _163
REMARK   69  A    between atoms: _163  and  _164
REMARK   70  A    between atoms: _173  and  _175
REMARK   71  A    between atoms: _175  and  _176
REMARK   72  A    between atoms: _175  and  _178
REMARK   73  A    between atoms: _178  and  _179
REMARK   74  A    between atoms: _184  and  _186
REMARK   75  A    between atoms: _186  and  _187
REMARK   76  A    between atoms: _186  and  _189
REMARK   77  A    between atoms: _189  and  _190
REMARK   78  A    between atoms: _192  and  _194
REMARK   79  A    between atoms: _194  and  _195
REMARK   80  A    between atoms: _194  and  _197
REMARK   81  A    between atoms: _197  and  _198
REMARK   82  A    between atoms: _200  and  _202
REMARK   83  A    between atoms: _202  and  _203
REMARK   84  A    between atoms: _202  and  _205
REMARK   85  A    between atoms: _205  and  _206
REMARK   86  A    between atoms: _206  and  _207
REMARK   87  A    between atoms: _210  and  _212
REMARK   88  A    between atoms: _212  and  _213
REMARK   89  A    between atoms: _212  and  _215
REMARK   90  A    between atoms: _215  and  _216
REMARK   91  A    between atoms: _216  and  _217
REMARK   92  A    between atoms: _217  and  _218
REMARK   93  A    between atoms: _227  and  _229
REMARK   94  A    between atoms: _229  and  _230
REMARK   95  A    between atoms: _229  and  _232
REMARK   96  A    between atoms: _235  and  _237
REMARK   97  A    between atoms: _237  and  _238
REMARK   98  A    between atoms: _237  and  _240
REMARK   99  A    between atoms: _240  and  _241
REMARK  100  A    between atoms: _244  and  _246
REMARK  101  A    between atoms: _246  and  _247
REMARK  102  A    between atoms: _246  and  _249
REMARK  103  A    between atoms: _252  and  _254
REMARK  104  A    between atoms: _254  and  _255
REMARK  105  A    between atoms: _254  and  _257
REMARK  106  A    between atoms: _257  and  _258
REMARK  107  A    between atoms: _261  and  _263
REMARK  108  A    between atoms: _263  and  _264
REMARK  109  A    between atoms: _267  and  _269
REMARK  110  A    between atoms: _269  and  _270
REMARK  111  A    between atoms: _269  and  _272
REMARK  112  A    between atoms: _272  and  _273
REMARK  113  A    between atoms: _278  and  _280
REMARK  114  A    between atoms: _280  and  _281
REMARK  115  A    between atoms: _280  and  _283
REMARK  116  A    between atoms: _283  and  _284
REMARK  117  A    between atoms: _284  and  _285
REMARK  118  A    between atoms: _288  and  _290
REMARK  119  A    between atoms: _290  and  _291
REMARK  120  A    between atoms: _290  and  _293
REMARK  121  A    between atoms: _293  and  _294
REMARK  122  A    between atoms: _299  and  _301
REMARK  123  A    between atoms: _301  and  _302
REMARK  124  A    between atoms: _301  and  _304
REMARK  125  A    between atoms: _304  and  _305
REMARK  126  A    between atoms: _315  and  _317
REMARK  127  A    between atoms: _317  and  _318
REMARK  128  A    between atoms: _317  and  _320
REMARK  129  A    between atoms: _320  and  _321
REMARK  130  A    between atoms: _324  and  _326
REMARK  131  A    between atoms: _326  and  _327
REMARK  132  A    between atoms: _326  and  _329
REMARK  133  A    between atoms: _329  and  _330
REMARK  134  A    between atoms: _335  and  _337
REMARK  135  A    between atoms: _337  and  _338
REMARK  136  A    between atoms: _337  and  _340
REMARK  137  A    between atoms: _340  and  _341
REMARK  138  A    between atoms: _341  and  _342
REMARK  139  A    between atoms: _345  and  _347
REMARK  140  A    between atoms: _347  and  _348
REMARK  141  A    between atoms: _351  and  _353
REMARK  142  A    between atoms: _353  and  _354
REMARK  143  A    between atoms: _353  and  _356
REMARK  144  A    between atoms: _356  and  _357
REMARK  145  A    between atoms: _359  and  _361
REMARK  146  A    between atoms: _361  and  _362
REMARK  147  A    between atoms: _361  and  _364
REMARK  148  A    between atoms: _364  and  _365
REMARK  149  A    between atoms: _365  and  _366
REMARK  150  A    between atoms: _369  and  _371
REMARK  151  A    between atoms: _371  and  _372
REMARK  152  A    between atoms: _371  and  _374
REMARK  153  A    between atoms: _374  and  _375
REMARK  154  A    between atoms: _380  and  _381
REMARK  155  A    between atoms: _383  and  _385
REMARK  156  A    between atoms: _385  and  _386
REMARK  157  A    between atoms: _385  and  _388
REMARK  158  A    between atoms: _388  and  _389
REMARK  159  A    between atoms: _392  and  _394
REMARK  160  A    between atoms: _394  and  _395
REMARK  161  A    between atoms: _394  and  _397
REMARK  162  A    between atoms: _397  and  _398
REMARK  163  A    between atoms: _403  and  _405
REMARK  164  A    between atoms: _405  and  _406
REMARK  165  A    between atoms: _405  and  _408
REMARK  166  A    between atoms: _408  and  _409
REMARK  167  A    between atoms: _412  and  _414
REMARK  168  A    between atoms: _414  and  _415
REMARK  169  A    between atoms: _414  and  _417
REMARK  170  A    between atoms: _417  and  _418
REMARK  171  A    between atoms: _423  and  _424
REMARK  172  A    between atoms: _426  and  _428
REMARK  173  A    between atoms: _428  and  _429
REMARK  174  A    between atoms: _428  and  _431
REMARK  175  A    between atoms: _431  and  _432
REMARK  176  A    between atoms: _432  and  _433
REMARK  177  A    between atoms: _433  and  _434
REMARK  178  A    between atoms: _443  and  _445
REMARK  179  A    between atoms: _445  and  _446
REMARK  180  A    between atoms: _445  and  _448
REMARK  181  A    between atoms: _451  and  _453
REMARK  182  A    between atoms: _453  and  _454
REMARK  183  A    between atoms: _457  and  _459
REMARK  184  A    between atoms: _459  and  _460
REMARK  185  A    between atoms: _459  and  _462
REMARK  186  A    between atoms: _465  and  _467
REMARK  187  A    between atoms: _467  and  _468
REMARK  188  A    between atoms: _467  and  _470
REMARK  189  A    between atoms: _470  and  _471
REMARK  190  A    between atoms: _473  and  _475
REMARK  191  A    between atoms: _475  and  _476
REMARK  192  A    between atoms: _475  and  _478
REMARK  193  A    between atoms: _478  and  _479
REMARK  194  A    between atoms: _479  and  _480
REMARK  195  A    between atoms: _483  and  _485
REMARK  196  A    between atoms: _485  and  _486
REMARK  197  A    between atoms: _485  and  _488
REMARK  198  A    between atoms: _488  and  _489
REMARK  199  A    between atoms: _492  and  _494
REMARK  200  A    between atoms: _494  and  _495
REMARK  201  A    between atoms: _494  and  _497
REMARK  202  A    between atoms: _497  and  _498
REMARK  203  A    between atoms: _504  and  _506
REMARK  204  A    between atoms: _506  and  _507
REMARK  205  A    between atoms: _506  and  _509
REMARK  206  A    between atoms: _509  and  _510
REMARK  207  A    between atoms: _513  and  _515
REMARK  208  A    between atoms: _515  and  _516
REMARK  209  A    between atoms: _519  and  _521
REMARK  210  A    between atoms: _521  and  _522
REMARK  211  A    between atoms: _521  and  _524
REMARK  212  A    between atoms: _524  and  _525
REMARK  213  A    between atoms: _530  and  _531
REMARK  214  A    between atoms: _533  and  _535
REMARK  215  A    between atoms: _535  and  _536
REMARK  216  A    between atoms: _535  and  _538
REMARK  217  A    between atoms: _538  and  _539
REMARK  218  A    between atoms: _541  and  _543
REMARK  219  A    between atoms: _543  and  _544
REMARK  220  A    between atoms: _543  and  _546
REMARK  221  A    between atoms: _546  and  _547
REMARK  222  A    between atoms: _550  and  _552
REMARK  223  A    between atoms: _552  and  _553
REMARK  224  A    between atoms: _552  and  _555
REMARK  225  A    between atoms: _555  and  _556
REMARK  226  A    between atoms: _558  and  _560
REMARK  227  A    between atoms: _560  and  _561
REMARK  228  A    between atoms: _560  and  _563
REMARK  229  A    between atoms: _563  and  _564
REMARK  230  A    between atoms: _567  and  _569
REMARK  231  A    between atoms: _569  and  _570
REMARK  232  A    between atoms: _569  and  _572
REMARK  233  A    between atoms: _572  and  _573
REMARK  234  A    between atoms: _575  and  _577
REMARK  235  A    between atoms: _577  and  _578
REMARK  236  A    between atoms: _577  and  _580
REMARK  237  A    between atoms: _580  and  _581
REMARK  238  A    between atoms: _584  and  _586
REMARK  239  A    between atoms: _586  and  _587
REMARK  240  A    between atoms: _586  and  _589
REMARK  241  A    between atoms: _589  and  _590
REMARK  242  A    between atoms: _595  and  _597
REMARK  243  A    between atoms: _597  and  _598
REMARK  244  A    between atoms: _597  and  _600
REMARK  245  A    between atoms: _600  and  _601
REMARK  246  A    between atoms: _603  and  _605
REMARK  247  A    between atoms: _605  and  _606
REMARK  248  A    between atoms: _605  and  _608
REMARK  249  A    between atoms: _608  and  _609
REMARK  250  A    between atoms: _615  and  _617
REMARK  251  A    between atoms: _617  and  _618
REMARK  252  A    between atoms: _617  and  _620
REMARK  253  A    between atoms: _620  and  _621
REMARK  254  A    between atoms: _623  and  _625
REMARK  255  A    between atoms: _625  and  _626
REMARK  256  A    between atoms: _625  and  _628
REMARK  257  A    between atoms: _628  and  _629
REMARK  258  A    between atoms: _635  and  _637
REMARK  259  A    between atoms: _637  and  _638
REMARK  260  A    between atoms: _637  and  _640
REMARK  261  A    between atoms: _640  and  _641
REMARK  262  A    between atoms: _643  and  _645
REMARK  263  A    between atoms: _645  and  _646
REMARK  264  A    between atoms: _645  and  _648
REMARK  265  A    between atoms: _648  and  _649
REMARK  266  A    between atoms: _654  and  _656
REMARK  267  A    between atoms: _656  and  _657
REMARK  268  A    between atoms: _656  and  _659
REMARK  269  A    between atoms: _659  and  _660
REMARK  270  A    between atoms: _663  and  _665
REMARK  271  A    between atoms: _665  and  _666
REMARK  272  A    between atoms: _665  and  _668
REMARK  273  A    between atoms: _668  and  _669
REMARK  274  A    between atoms: _672  and  _674
REMARK  275  A    between atoms: _674  and  _675
REMARK  276  A    between atoms: _674  and  _677
REMARK  277  A    between atoms: _677  and  _678
REMARK  278  A    between atoms: _678  and  _679
REMARK  279  A    between atoms: _684  and  _686
REMARK  280  A    between atoms: _686  and  _687
REMARK  281  A    between atoms: _690  and  _692
REMARK  282  A    between atoms: _692  and  _693
REMARK  283  A    between atoms: _692  and  _695
REMARK  284  A    between atoms: _698  and  _700
REMARK  285  A    between atoms: _700  and  _701
REMARK  286  A    between atoms: _700  and  _703
REMARK  287  A    between atoms: _703  and  _704
REMARK  288  A    between atoms: _707  and  _709
REMARK  289  A    between atoms: _709  and  _710
REMARK  290  A    between atoms: _709  and  _712
REMARK  291  A    between atoms: _712  and  _713
REMARK  292  A    between atoms: _713  and  _714
REMARK  293  A    between atoms: _714  and  _715
REMARK  294  A    between atoms: _724  and  _726
REMARK  295  A    between atoms: _726  and  _727
REMARK  296  A    between atoms: _726  and  _729
REMARK  297  A    between atoms: _729  and  _730
REMARK  298  A    between atoms: _730  and  _731
REMARK  299  A    between atoms: _731  and  _732
REMARK  300  A    between atoms: _732  and  _733
REMARK                            x       y       z     vdW  Elec       q    Type
REMARK                         _______ _______ _______ _____ _____    ______ ____
ROOT
ATOM      1  CA  LEU A   1     106.400  26.131  28.729  0.00  0.00    +0.133 C 
ENDROOT
BRANCH   1   2
ATOM      2  N   LEU A   1     105.988  26.770  29.998  0.00  0.00    -0.239 NA
ATOM      3  H   LEU A   1     105.409  26.229  30.671  0.00  0.00    +0.142 HD
ENDBRANCH   1   2
BRANCH   1   4
ATOM      4  C   LEU A   1     106.208  27.020  27.479  0.00  0.00    +0.224 C 
ATOM      5  O   LEU A   1     107.024  26.994  26.535  0.00  0.00    -0.287 OA
ENDBRANCH   1   4
BRANCH   1   6
ATOM      6  CB  LEU A   1     105.649  24.787  28.522  0.00  0.00    +0.025 C 
BRANCH   6   7
ATOM      7  CG  LEU A   1     106.089  23.949  27.316  0.00  0.00    +0.002 C 
ATOM      8  CD2 LEU A   1     105.218  22.697  27.271  0.00  0.00    +0.000 C 
ATOM      9  CD1 LEU A   1     107.601  23.621  27.269  0.00  0.00    +0.000 C 
ENDBRANCH   6   7
ENDBRANCH   1   6
TORSDOF 4
REMARK  Name = ../refined-set-2016/4fys/4fys_pocket.pdb
REMARK  300 active torsions:
REMARK  status: ('A' for Active; 'I' for Inactive)
REMARK    1  A    between atoms: _1  and  _3
REMARK    2  A    between atoms: _3  and  _4
REMARK    3  A    between atoms: _3  and  _6
REMARK    4  A    between atoms: _6  and  _7
REMARK    5  A    between atoms: _7  and  _8
REMARK    6  A    between atoms: _13  and  _15
REMARK    7  A    between atoms: _15  and  _16
REMARK    8  A    between atoms: _15  and  _18
REMARK    9  A    between atoms: _18  and  _19
REMARK   10  A    between atoms: _19  and  _20
REMARK   11  A    between atoms: _22  and  _24
REMARK   12  A    between atoms: _24  and  _25
REMARK   13  A    between atoms: _24  and  _27
REMARK   14  A    between atoms: _27  and  _28
REMARK   15  A    between atoms: _28  and  _29
REMARK   16  A    between atoms: _34  and  _36
REMARK   17  A    between atoms: _36  and  _37
REMARK   18  A    between atoms: _40  and  _42
REMARK   19  A    between atoms: _42  and  _43
REMARK   20  A    between atoms: _42  and  _45
REMARK   21  A    between atoms: _45  and  _46
REMARK   22  A    between atoms: _51  and  _52
REMARK   23  A    between atoms: _54  and  _56
REMARK   24  A    between atoms: _56  and  _57
REMARK   25  A    between atoms: _56  and  _59
REMARK   26  A    between atoms: _59  and  _60
REMARK   27  A    between atoms: _63  and  _65
REMARK   28  A    between atoms: _65  and  _66
REMARK   29  A    between atoms: _65  and  _68
REMARK   30  A    between atoms: _68  and  _69
REMARK   31  A    between atoms: _75  and  _77
REMARK   32  A    between atoms: _77  and  _78
REMARK   33  A    between atoms: _77  and  _80
REMARK   34  A    between atoms: _80  and  _81
REMARK   35  A    between atoms: _86  and  _88
REMARK   36  A    between atoms: _88  and  _89
REMARK   37  A    between atoms: _92  and  _94
REMARK   38  A    between atoms: _94  and  _95
REMARK   39  A    between atoms: _97  and  _99
REMARK   40  A    between atoms: _99  and  _100
REMARK   41  A    between atoms: _103  and  _105
REMARK   42  A    between atoms: _105  and  _106
REMARK   43  A    between atoms: _105  and  _108
REMARK   44  A    between atoms: _108  and  _109
REMARK   45  A    between atoms: _109  and  _110
REMARK   46  A    between atoms: _112  and  _114
REMARK   47  A    between atoms: _114  and  _115
REMARK   48  A    between atoms: _114  and  _117
REMARK   49  A    between atoms: _117  and  _118
REMARK   50  A    between atoms: _118  and  _119
REMARK   51  A    between atoms: _122  and  _124
REMARK   52  A    between atoms: _124  and  _125
REMARK   53  A    between atoms: _124  and  _127
REMARK   54  A    between atoms: _127  and  _128
REMARK   55  A    between atoms: _133  and  _135
REMARK   56  A    between atoms: _135  and  _136
REMARK   57  A    between atoms: _135  and  _138
REMARK   58  A    between atoms: _138  and  _139
REMARK   59  A    between atoms: _142  and  _144
REMARK   60  A    between atoms: _144  and  _145
REMARK   61  A    between atoms: _144  and  _147
REMARK   62  A    between atoms: _147  and  _148
REMARK   63  A    between atoms: _153  and  _154
REMARK   64  A    between atoms: _156  and  _158
REMARK   65  A    between atoms: _158  and  _159
REMARK   66  A    between atoms: _158  and  _161
REMARK   67  A    between atoms: _161  and  _162
REMARK   68  A    between atoms: _162  and  _163
REMARK   69  A    between atoms: _163  and  _164
REMARK   70  A    between atoms: _173  and  _175
REMARK   71  A    between atoms: _175  and  _176
REMARK   72  A    between atoms: _175  and  _178
REMARK   73  A    between atoms: _178  and  _179
REMARK   74  A    between atoms: _184  and  _186
REMARK   75  A    between atoms: _186  and  _187
REMARK   76  A    between atoms: _186  and  _189
REMARK   77  A    between atoms: _189  and  _190
REMARK   78  A    between atoms: _192  and  _194
REMARK   79  A    between atoms: _194  and  _195
REMARK   80  A    between atoms: _194  and  _197
REMARK   81  A    between atoms: _197  and  _198
REMARK   82  A    between atoms: _200  and  _202
REMARK   83  A    between atoms: _202  and  _203
REMARK   84  A    between atoms: _202  and  _205
REMARK   85  A    between atoms: _205  and  _206
REMARK   86  A    between atoms: _206  and  _207
REMARK   87  A    between atoms: _210  and  _212
REMARK   88  A    between atoms: _212  and  _213
REMARK   89  A    between atoms: _212  and  _215
REMARK   90  A    between atoms: _215  and  _216
REMARK   91  A    between atoms: _216  and  _217
REMARK   92  A    between atoms: _217  and  _218
REMARK   93  A    between atoms: _227  and  _229
REMARK   94  A    between atoms: _229  and  _230
REMARK   95  A    between atoms: _229  and  _232
REMARK   96  A    between atoms: _235  and  _237
REMARK   97  A    between atoms: _237  and  _238
REMARK   98  A    between atoms: _237  and  _240
REMARK   99  A    between atoms: _240  and  _241
REMARK  100  A    between atoms: _244  and  _246
REMARK  101  A    between atoms: _246  and  _247
REMARK  102  A    between atoms: _246  and  _249
REMARK  103  A    between atoms: _252  and  _254
REMARK  104  A    between atoms: _254  and  _255
REMARK  105  A    between atoms: _254  and  _257
REMARK  106  A    between atoms: _257  and  _258
REMARK  107  A    between atoms: _261  and  _263
REMARK  108  A    between atoms: _263  and  _264
REMARK  109  A    between atoms: _267  and  _269
REMARK  110  A    between atoms: _269  and  _270
REMARK  111  A    between atoms: _269  and  _272
REMARK  112  A    between atoms: _272  and  _273
REMARK  113  A    between atoms: _278  and  _280
REMARK  114  A    between atoms: _280  and  _281
REMARK  115  A    between atoms: _280  and  _283
REMARK  116  A    between atoms: _283  and  _284
REMARK  117  A    between atoms: _284  and  _285
REMARK  118  A    between atoms: _288  and  _290
REMARK  119  A    between atoms: _290  and  _291
REMARK  120  A    between atoms: _290  and  _293
REMARK  121  A    between atoms: _293  and  _294
REMARK  122  A    between atoms: _299  and  _301
REMARK  123  A    between atoms: _301  and  _302
REMARK  124  A    between atoms: _301  and  _304
REMARK  125  A    between atoms: _304  and  _305
REMARK  126  A    between atoms: _315  and  _317
REMARK  127  A    between atoms: _317  and  _318
REMARK  128  A    between atoms: _317  and  _320
REMARK  129  A    between atoms: _320  and  _321
REMARK  130  A    between atoms: _324  and  _326
REMARK  131  A    between atoms: _326  and  _327
REMARK  132  A    between atoms: _326  and  _329
REMARK  133  A    between atoms: _329  and  _330
REMARK  134  A    between atoms: _335  and  _337
REMARK  135  A    between atoms: _337  and  _338
REMARK  136  A    between atoms: _337  and  _340
REMARK  137  A    between atoms: _340  and  _341
REMARK  138  A    between atoms: _341  and  _342
REMARK  139  A    between atoms: _345  and  _347
REMARK  140  A    between atoms: _347  and  _348
REMARK  141  A    between atoms: _351  and  _353
REMARK  142  A    between atoms: _353  and  _354
REMARK  143  A    between atoms: _353  and  _356
REMARK  144  A    between atoms: _356  and  _357
REMARK  145  A    between atoms: _359  and  _361
REMARK  146  A    between atoms: _361  and  _362
REMARK  147  A    between atoms: _361  and  _364
REMARK  148  A    between atoms: _364  and  _365
REMARK  149  A    between atoms: _365  and  _366
REMARK  150  A    between atoms: _369  and  _371
REMARK  151  A    between atoms: _371  and  _372
REMARK  152  A    between atoms: _371  and  _374
REMARK  153  A    between atoms: _374  and  _375
REMARK  154  A    between atoms: _380  and  _381
REMARK  155  A    between atoms: _383  and  _385
REMARK  156  A    between atoms: _385  and  _386
REMARK  157  A    between atoms: _385  and  _388
REMARK  158  A    between atoms: _388  and  _389
REMARK  159  A    between atoms: _392  and  _394
REMARK  160  A    between atoms: _394  and  _395
REMARK  161  A    between atoms: _394  and  _397
REMARK  162  A    between atoms: _397  and  _398
REMARK  163  A    between atoms: _403  and  _405
REMARK  164  A    between atoms: _405  and  _406
REMARK  165  A    between atoms: _405  and  _408
REMARK  166  A    between atoms: _408  and  _409
REMARK  167  A    between atoms: _412  and  _414
REMARK  168  A    between atoms: _414  and  _415
REMARK  169  A    between atoms: _414  and  _417
REMARK  170  A    between atoms: _417  and  _418
REMARK  171  A    between atoms: _423  and  _424
REMARK  172  A    between atoms: _426  and  _428
REMARK  173  A    between atoms: _428  and  _429
REMARK  174  A    between atoms: _428  and  _431
REMARK  175  A    between atoms: _431  and  _432
REMARK  176  A    between atoms: _432  and  _433
REMARK  177  A    between atoms: _433  and  _434
REMARK  178  A    between atoms: _443  and  _445
REMARK  179  A    between atoms: _445  and  _446
REMARK  180  A    between atoms: _445  and  _448
REMARK  181  A    between atoms: _451  and  _453
REMARK  182  A    between atoms: _453  and  _454
REMARK  183  A    between atoms: _457  and  _459
REMARK  184  A    between atoms: _459  and  _460
REMARK  185  A    between atoms: _459  and  _462
REMARK  186  A    between atoms: _465  and  _467
REMARK  187  A    between atoms: _467  and  _468
REMARK  188  A    between atoms: _467  and  _470
REMARK  189  A    between atoms: _470  and  _471
REMARK  190  A    between atoms: _473  and  _475
REMARK  191  A    between atoms: _475  and  _476
REMARK  192  A    between atoms: _475  and  _478
REMARK  193  A    between atoms: _478  and  _479
REMARK  194  A    between atoms: _479  and  _480
REMARK  195  A    between atoms: _483  and  _485
REMARK  196  A    between atoms: _485  and  _486
REMARK  197  A    between atoms: _485  and  _488
REMARK  198  A    between atoms: _488  and  _489
REMARK  199  A    between atoms: _492  and  _494
REMARK  200  A    between atoms: _494  and  _495
REMARK  201  A    between atoms: _494  and  _497
REMARK  202  A    between atoms: _497  and  _498
REMARK  203  A    between atoms: _504  and  _506
REMARK  204  A    between atoms: _506  and  _507
REMARK  205  A    between atoms: _506  and  _509
REMARK  206  A    between atoms: _509  and  _510
REMARK  207  A    between atoms: _513  and  _515
REMARK  208  A    between atoms: _515  and  _516
REMARK  209  A    between atoms: _519  and  _521
REMARK  210  A    between atoms: _521  and  _522
REMARK  211  A    between atoms: _521  and  _524
REMARK  212  A    between atoms: _524  and  _525
REMARK  213  A    between atoms: _530  and  _531
REMARK  214  A    between atoms: _533  and  _535
REMARK  215  A    between atoms: _535  and  _536
REMARK  216  A    between atoms: _535  and  _538
REMARK  217  A    between atoms: _538  and  _539
REMARK  218  A    between atoms: _541  and  _543
REMARK  219  A    between atoms: _543  and  _544
REMARK  220  A    between atoms: _543  and  _546
REMARK  221  A    between atoms: _546  and  _547
REMARK  222  A    between atoms: _550  and  _552
REMARK  223  A    between atoms: _552  and  _553
REMARK  224  A    between atoms: _552  and  _555
REMARK  225  A    between atoms: _555  and  _556
REMARK  226  A    between atoms: _558  and  _560
REMARK  227  A    between atoms: _560  and  _561
REMARK  228  A    between atoms: _560  and  _563
REMARK  229  A    between atoms: _563  and  _564
REMARK  230  A    between atoms: _567  and  _569
REMARK  231  A    between atoms: _569  and  _570
REMARK  232  A    between atoms: _569  and  _572
REMARK  233  A    between atoms: _572  and  _573
REMARK  234  A    between atoms: _575  and  _577
REMARK  235  A    between atoms: _577  and  _578
REMARK  236  A    between atoms: _577  and  _580
REMARK  237  A    between atoms: _580  and  _581
REMARK  238  A    between atoms: _584  and  _586
REMARK  239  A    between atoms: _586  and  _587
REMARK  240  A    between atoms: _586  and  _589
REMARK  241  A    between atoms: _589  and  _590
REMARK  242  A    between atoms: _595  and  _597
REMARK  243  A    between atoms: _597  and  _598
REMARK  244  A    between atoms: _597  and  _600
REMARK  245  A    between atoms: _600  and  _601
REMARK  246  A    between atoms: _603  and  _605
REMARK  247  A    between atoms: _605  and  _606
REMARK  248  A    between atoms: _605  and  _608
REMARK  249  A    between atoms: _608  and  _609
REMARK  250  A    between atoms: _615  and  _617
REMARK  251  A    between atoms: _617  and  _618
REMARK  252  A    between atoms: _617  and  _620
REMARK  253  A    between atoms: _620  and  _621
REMARK  254  A    between atoms: _623  and  _625
REMARK  255  A    between atoms: _625  and  _626
REMARK  256  A    between atoms: _625  and  _628
REMARK  257  A    between atoms: _628  and  _629
REMARK  258  A    between atoms: _635  and  _637
REMARK  259  A    between atoms: _637  and  _638
REMARK  260  A    between atoms: _637  and  _640
REMARK  261  A    between atoms: _640  and  _641
REMARK  262  A    between atoms: _643  and  _645
REMARK  263  A    between atoms: _645  and  _646
REMARK  264  A    between atoms: _645  and  _648
REMARK  265  A    between atoms: _648  and  _649
REMARK  266  A    between atoms: _654  and  _656
REMARK  267  A    between atoms: _656  and  _657
REMARK  268  A    between atoms: _656  and  _659
REMARK  269  A    between atoms: _659  and  _660
REMARK  270  A    between atoms: _663  and  _665
REMARK  271  A    between atoms: _665  and  _666
REMARK  272  A    between atoms: _665  and  _668
REMARK  273  A    between atoms: _668  and  _669
REMARK  274  A    between atoms: _672  and  _674
REMARK  275  A    between atoms: _674  and  _675
REMARK  276  A    between atoms: _674  and  _677
REMARK  277  A    between atoms: _677  and  _678
REMARK  278  A    between atoms: _678  and  _679
REMARK  279  A    between atoms: _684  and  _686
REMARK  280  A    between atoms: _686  and  _687
REMARK  281  A    between atoms: _690  and  _692
REMARK  282  A    between atoms: _692  and  _693
REMARK  283  A    between atoms: _692  and  _695
REMARK  284  A    between atoms: _698  and  _700
REMARK  285  A    between atoms: _700  and  _701
REMARK  286  A    between atoms: _700  and  _703
REMARK  287  A    between atoms: _703  and  _704
REMARK  288  A    between atoms: _707  and  _709
REMARK  289  A    between atoms: _709  and  _710
REMARK  290  A    between atoms: _709  and  _712
REMARK  291  A    between atoms: _712  and  _713
REMARK  292  A    between atoms: _713  and  _714
REMARK  293  A    between atoms: _714  and  _715
REMARK  294  A    between atoms: _724  and  _726
REMARK  295  A    between atoms: _726  and  _727
REMARK  296  A    between atoms: _726  and  _729
REMARK  297  A    between atoms: _729  and  _730
REMARK  298  A    between atoms: _730  and  _731
REMARK  299  A    between atoms: _731  and  _732
REMARK  300  A    between atoms: _732  and  _733
REMARK                            x       y       z     vdW  Elec       q    Type
REMARK                         _______ _______ _______ _____ _____    ______ ____
ROOT
ATOM      1  C   ASN A   1     108.746  27.603  23.420  0.00  0.00    +0.239 C 
ATOM      2  N   GLU A   2     107.678  26.855  23.644  0.00  0.00    -0.298 N 
ATOM      3  H   GLU A   2     107.384  26.672  24.625  0.00  0.00    +0.150 HD
ATOM      4  O   ASN A   1     109.009  28.044  22.316  0.00  0.00    -0.274 OA
ENDROOT
BRANCH   1   5
ATOM      5  CA  ASN A   1     109.679  27.864  24.638  0.00  0.00    +0.154 C 
BRANCH   5   6
ATOM      6  N   ASN A   1     109.012  28.686  25.686  0.00  0.00    -0.238 NA
ATOM      7  H   ASN A   1     108.586  28.221  26.513  0.00  0.00    +0.142 HD
ENDBRANCH   5   6
BRANCH   5   8
ATOM      8  CB  ASN A   1     110.058  26.485  25.183  0.00  0.00    +0.111 C 
BRANCH   8   9
ATOM      9  CG  ASN A   1     111.315  26.491  26.030  0.00  0.00    +0.221 C 
ATOM     10  OD1 ASN A   1     111.717  27.523  26.590  0.00  0.00    -0.275 OA
ATOM     11  ND2 ASN A   1     111.935  25.320  26.153  0.00  0.00    -0.329 N 
ATOM     12 HD21 ASN A   1     112.792  25.244  26.737  0.00  0.00    +0.145 HD
ATOM     13 HD22 ASN A   1     111.562  24.480  25.665  0.00  0.00    +0.145 HD
ENDBRANCH   8   9
ENDBRANCH   5   8
ENDBRANCH   1   5
BRANCH   2  14
ATOM     14  CA  GLU A   2     106.890  26.272  22.533  0.00  0.00    +0.137 C 
BRANCH  14  15
ATOM     15  C   GLU A   2     105.916  27.254  21.891  0.00  0.00    +0.227 C 
ATOM     16  O   GLU A   2     105.539  27.051  20.760  0.00  0.00    -0.286 OA
ENDBRANCH  14  15
BRANCH  14  17
ATOM     17  CB  GLU A   2     106.086  25.046  23.015  0.00  0.00    +0.039 C 
BRANCH  17  18
ATOM     18  CG  GLU A   2     106.951  23.878  23.525  0.00  0.00    +0.116 C 
BRANCH  18  19
ATOM     19  CD  GLU A   2     107.941  23.319  22.516  0.00  0.00    +0.365 C 
ATOM     20  OE2 GLU A   2     108.843  22.499  22.914  0.00  0.00    -0.246 OA
ATOM     21  OE1 GLU A   2     107.817  23.668  21.336  0.00  0.00    -0.246 OA
ENDBRANCH  18  19
ENDBRANCH  17  18
ENDBRANCH  14  17
ENDBRANCH   2  14
TORSDOF 9
REMARK  Name = ../refined-set-2016/4fys/4fys_pocket.pdb
REMARK  300 active torsions:
REMARK  status: ('A' for Active; 'I' for Inactive)
REMARK    1  A    between atoms: _1  and  _3
REMARK    2  A    between atoms: _3  and  _4
REMARK    3  A    between atoms: _3  and  _6
REMARK    4  A    between atoms: _6  and  _7
REMARK    5  A    between atoms: _7  and  _8
REMARK    6  A    between atoms: _13  and  _15
REMARK    7  A    between atoms: _15  and  _16
REMARK    8  A    between atoms: _15  and  _18
REMARK    9  A    between atoms: _18  and  _19
REMARK   10  A    between atoms: _19  and  _20
REMARK   11  A    between atoms: _22  and  _24
REMARK   12  A    between atoms: _24  and  _25
REMARK   13  A    between atoms: _24  and  _27
REMARK   14  A    between atoms: _27  and  _28
REMARK   15  A    between atoms: _28  and  _29
REMARK   16  A    between atoms: _34  and  _36
REMARK   17  A    between atoms: _36  and  _37
REMARK   18  A    between atoms: _40  and  _42
REMARK   19  A    between atoms: _42  and  _43
REMARK   20  A    between atoms: _42  and  _45
REMARK   21  A    between atoms: _45  and  _46
REMARK   22  A    between atoms: _51  and  _52
REMARK   23  A    between atoms: _54  and  _56
REMARK   24  A    between atoms: _56  and  _57
REMARK   25  A    between atoms: _56  and  _59
REMARK   26  A    between atoms: _59  and  _60
REMARK   27  A    between atoms: _63  and  _65
REMARK   28  A    between atoms: _65  and  _66
REMARK   29  A    between atoms: _65  and  _68
REMARK   30  A    between atoms: _68  and  _69
REMARK   31  A    between atoms: _75  and  _77
REMARK   32  A    between atoms: _77  and  _78
REMARK   33  A    between atoms: _77  and  _80
REMARK   34  A    between atoms: _80  and  _81
REMARK   35  A    between atoms: _86  and  _88
REMARK   36  A    between atoms: _88  and  _89
REMARK   37  A    between atoms: _92  and  _94
REMARK   38  A    between atoms: _94  and  _95
REMARK   39  A    between atoms: _97  and  _99
REMARK   40  A    between atoms: _99  and  _100
REMARK   41  A    between atoms: _103  and  _105
REMARK   42  A    between atoms: _105  and  _106
REMARK   43  A    between atoms: _105  and  _108
REMARK   44  A    between atoms: _108  and  _109
REMARK   45  A    between atoms: _109  and  _110
REMARK   46  A    between atoms: _112  and  _114
REMARK   47  A    between atoms: _114  and  _115
REMARK   48  A    between atoms: _114  and  _117
REMARK   49  A    between atoms: _117  and  _118
REMARK   50  A    between atoms: _118  and  _119
REMARK   51  A    between atoms: _122  and  _124
REMARK   52  A    between atoms: _124  and  _125
REMARK   53  A    between atoms: _124  and  _127
REMARK   54  A    between atoms: _127  and  _128
REMARK   55  A    between atoms: _133  and  _135
REMARK   56  A    between atoms: _135  and  _136
REMARK   57  A    between atoms: _135  and  _138
REMARK   58  A    between atoms: _138  and  _139
REMARK   59  A    between atoms: _142  and  _144
REMARK   60  A    between atoms: _144  and  _145
REMARK   61  A    between atoms: _144  and  _147
REMARK   62  A    between atoms: _147  and  _148
REMARK   63  A    between atoms: _153  and  _154
REMARK   64  A    between atoms: _156  and  _158
REMARK   65  A    between atoms: _158  and  _159
REMARK   66  A    between atoms: _158  and  _161
REMARK   67  A    between atoms: _161  and  _162
REMARK   68  A    between atoms: _162  and  _163
REMARK   69  A    between atoms: _163  and  _164
REMARK   70  A    between atoms: _173  and  _175
REMARK   71  A    between atoms: _175  and  _176
REMARK   72  A    between atoms: _175  and  _178
REMARK   73  A    between atoms: _178  and  _179
REMARK   74  A    between atoms: _184  and  _186
REMARK   75  A    between atoms: _186  and  _187
REMARK   76  A    between atoms: _186  and  _189
REMARK   77  A    between atoms: _189  and  _190
REMARK   78  A    between atoms: _192  and  _194
REMARK   79  A    between atoms: _194  and  _195
REMARK   80  A    between atoms: _194  and  _197
REMARK   81  A    between atoms: _197  and  _198
REMARK   82  A    between atoms: _200  and  _202
REMARK   83  A    between atoms: _202  and  _203
REMARK   84  A    between atoms: _202  and  _205
REMARK   85  A    between atoms: _205  and  _206
REMARK   86  A    between atoms: _206  and  _207
REMARK   87  A    between atoms: _210  and  _212
REMARK   88  A    between atoms: _212  and  _213
REMARK   89  A    between atoms: _212  and  _215
REMARK   90  A    between atoms: _215  and  _216
REMARK   91  A    between atoms: _216  and  _217
REMARK   92  A    between atoms: _217  and  _218
REMARK   93  A    between atoms: _227  and  _229
REMARK   94  A    between atoms: _229  and  _230
REMARK   95  A    between atoms: _229  and  _232
REMARK   96  A    between atoms: _235  and  _237
REMARK   97  A    between atoms: _237  and  _238
REMARK   98  A    between atoms: _237  and  _240
REMARK   99  A    between atoms: _240  and  _241
REMARK  100  A    between atoms: _244  and  _246
REMARK  101  A    between atoms: _246  and  _247
REMARK  102  A    between atoms: _246  and  _249
REMARK  103  A    between atoms: _252  and  _254
REMARK  104  A    between atoms: _254  and  _255
REMARK  105  A    between atoms: _254  and  _257
REMARK  106  A    between atoms: _257  and  _258
REMARK  107  A    between atoms: _261  and  _263
REMARK  108  A    between atoms: _263  and  _264
REMARK  109  A    between atoms: _267  and  _269
REMARK  110  A    between atoms: _269  and  _270
REMARK  111  A    between atoms: _269  and  _272
REMARK  112  A    between atoms: _272  and  _273
REMARK  113  A    between atoms: _278  and  _280
REMARK  114  A    between atoms: _280  and  _281
REMARK  115  A    between atoms: _280  and  _283
REMARK  116  A    between atoms: _283  and  _284
REMARK  117  A    between atoms: _284  and  _285
REMARK  118  A    between atoms: _288  and  _290
REMARK  119  A    between atoms: _290  and  _291
REMARK  120  A    between atoms: _290  and  _293
REMARK  121  A    between atoms: _293  and  _294
REMARK  122  A    between atoms: _299  and  _301
REMARK  123  A    between atoms: _301  and  _302
REMARK  124  A    between atoms: _301  and  _304
REMARK  125  A    between atoms: _304  and  _305
REMARK  126  A    between atoms: _315  and  _317
REMARK  127  A    between atoms: _317  and  _318
REMARK  128  A    between atoms: _317  and  _320
REMARK  129  A    between atoms: _320  and  _321
REMARK  130  A    between atoms: _324  and  _326
REMARK  131  A    between atoms: _326  and  _327
REMARK  132  A    between atoms: _326  and  _329
REMARK  133  A    between atoms: _329  and  _330
REMARK  134  A    between atoms: _335  and  _337
REMARK  135  A    between atoms: _337  and  _338
REMARK  136  A    between atoms: _337  and  _340
REMARK  137  A    between atoms: _340  and  _341
REMARK  138  A    between atoms: _341  and  _342
REMARK  139  A    between atoms: _345  and  _347
REMARK  140  A    between atoms: _347  and  _348
REMARK  141  A    between atoms: _351  and  _353
REMARK  142  A    between atoms: _353  and  _354
REMARK  143  A    between atoms: _353  and  _356
REMARK  144  A    between atoms: _356  and  _357
REMARK  145  A    between atoms: _359  and  _361
REMARK  146  A    between atoms: _361  and  _362
REMARK  147  A    between atoms: _361  and  _364
REMARK  148  A    between atoms: _364  and  _365
REMARK  149  A    between atoms: _365  and  _366
REMARK  150  A    between atoms: _369  and  _371
REMARK  151  A    between atoms: _371  and  _372
REMARK  152  A    between atoms: _371  and  _374
REMARK  153  A    between atoms: _374  and  _375
REMARK  154  A    between atoms: _380  and  _381
REMARK  155  A    between atoms: _383  and  _385
REMARK  156  A    between atoms: _385  and  _386
REMARK  157  A    between atoms: _385  and  _388
REMARK  158  A    between atoms: _388  and  _389
REMARK  159  A    between atoms: _392  and  _394
REMARK  160  A    between atoms: _394  and  _395
REMARK  161  A    between atoms: _394  and  _397
REMARK  162  A    between atoms: _397  and  _398
REMARK  163  A    between atoms: _403  and  _405
REMARK  164  A    between atoms: _405  and  _406
REMARK  165  A    between atoms: _405  and  _408
REMARK  166  A    between atoms: _408  and  _409
REMARK  167  A    between atoms: _412  and  _414
REMARK  168  A    between atoms: _414  and  _415
REMARK  169  A    between atoms: _414  and  _417
REMARK  170  A    between atoms: _417  and  _418
REMARK  171  A    between atoms: _423  and  _424
REMARK  172  A    between atoms: _426  and  _428
REMARK  173  A    between atoms: _428  and  _429
REMARK  174  A    between atoms: _428  and  _431
REMARK  175  A    between atoms: _431  and  _432
REMARK  176  A    between atoms: _432  and  _433
REMARK  177  A    between atoms: _433  and  _434
REMARK  178  A    between atoms: _443  and  _445
REMARK  179  A    between atoms: _445  and  _446
REMARK  180  A    between atoms: _445  and  _448
REMARK  181  A    between atoms: _451  and  _453
REMARK  182  A    between atoms: _453  and  _454
REMARK  183  A    between atoms: _457  and  _459
REMARK  184  A    between atoms: _459  and  _460
REMARK  185  A    between atoms: _459  and  _462
REMARK  186  A    between atoms: _465  and  _467
REMARK  187  A    between atoms: _467  and  _468
REMARK  188  A    between atoms: _467  and  _470
REMARK  189  A    between atoms: _470  and  _471
REMARK  190  A    between atoms: _473  and  _475
REMARK  191  A    between atoms: _475  and  _476
REMARK  192  A    between atoms: _475  and  _478
REMARK  193  A    between atoms: _478  and  _479
REMARK  194  A    between atoms: _479  and  _480
REMARK  195  A    between atoms: _483  and  _485
REMARK  196  A    between atoms: _485  and  _486
REMARK  197  A    between atoms: _485  and  _488
REMARK  198  A    between atoms: _488  and  _489
REMARK  199  A    between atoms: _492  and  _494
REMARK  200  A    between atoms: _494  and  _495
REMARK  201  A    between atoms: _494  and  _497
REMARK  202  A    between atoms: _497  and  _498
REMARK  203  A    between atoms: _504  and  _506
REMARK  204  A    between atoms: _506  and  _507
REMARK  205  A    between atoms: _506  and  _509
REMARK  206  A    between atoms: _509  and  _510
REMARK  207  A    between atoms: _513  and  _515
REMARK  208  A    between atoms: _515  and  _516
REMARK  209  A    between atoms: _519  and  _521
REMARK  210  A    between atoms: _521  and  _522
REMARK  211  A    between atoms: _521  and  _524
REMARK  212  A    between atoms: _524  and  _525
REMARK  213  A    between atoms: _530  and  _531
REMARK  214  A    between atoms: _533  and  _535
REMARK  215  A    between atoms: _535  and  _536
REMARK  216  A    between atoms: _535  and  _538
REMARK  217  A    between atoms: _538  and  _539
REMARK  218  A    between atoms: _541  and  _543
REMARK  219  A    between atoms: _543  and  _544
REMARK  220  A    between atoms: _543  and  _546
REMARK  221  A    between atoms: _546  and  _547
REMARK  222  A    between atoms: _550  and  _552
REMARK  223  A    between atoms: _552  and  _553
REMARK  224  A    between atoms: _552  and  _555
REMARK  225  A    between atoms: _555  and  _556
REMARK  226  A    between atoms: _558  and  _560
REMARK  227  A    between atoms: _560  and  _561
REMARK  228  A    between atoms: _560  and  _563
REMARK  229  A    between atoms: _563  and  _564
REMARK  230  A    between atoms: _567  and  _569
REMARK  231  A    between atoms: _569  and  _570
REMARK  232  A    between atoms: _569  and  _572
REMARK  233  A    between atoms: _572  and  _573
REMARK  234  A    between atoms: _575  and  _577
REMARK  235  A    between atoms: _577  and  _578
REMARK  236  A    between atoms: _577  and  _580
REMARK  237  A    between atoms: _580  and  _581
REMARK  238  A    between atoms: _584  and  _586
REMARK  239  A    between atoms: _586  and  _587
REMARK  240  A    between atoms: _586  and  _589
REMARK  241  A    between atoms: _589  and  _590
REMARK  242  A    between atoms: _595  and  _597
REMARK  243  A    between atoms: _597  and  _598
REMARK  244  A    between atoms: _597  and  _600
REMARK  245  A    between atoms: _600  and  _601
REMARK  246  A    between atoms: _603  and  _605
REMARK  247  A    between atoms: _605  and  _606
REMARK  248  A    between atoms: _605  and  _608
REMARK  249  A    between atoms: _608  and  _609
REMARK  250  A    between atoms: _615  and  _617
REMARK  251  A    between atoms: _617  and  _618
REMARK  252  A    between atoms: _617  and  _620
REMARK  253  A    between atoms: _620  and  _621
REMARK  254  A    between atoms: _623  and  _625
REMARK  255  A    between atoms: _625  and  _626
REMARK  256  A    between atoms: _625  and  _628
REMARK  257  A    between atoms: _628  and  _629
REMARK  258  A    between atoms: _635  and  _637
REMARK  259  A    between atoms: _637  and  _638
REMARK  260  A    between atoms: _637  and  _640
REMARK  261  A    between atoms: _640  and  _641
REMARK  262  A    between atoms: _643  and  _645
REMARK  263  A    between atoms: _645  and  _646
REMARK  264  A    between atoms: _645  and  _648
REMARK  265  A    between atoms: _648  and  _649
REMARK  266  A    between atoms: _654  and  _656
REMARK  267  A    between atoms: _656  and  _657
REMARK  268  A    between atoms: _656  and  _659
REMARK  269  A    between atoms: _659  and  _660
REMARK  270  A    between atoms: _663  and  _665
REMARK  271  A    between atoms: _665  and  _666
REMARK  272  A    between atoms: _665  and  _668
REMARK  273  A    between atoms: _668  and  _669
REMARK  274  A    between atoms: _672  and  _674
REMARK  275  A    between atoms: _674  and  _675
REMARK  276  A    between atoms: _674  and  _677
REMARK  277  A    between atoms: _677  and  _678
REMARK  278  A    between atoms: _678  and  _679
REMARK  279  A    between atoms: _684  and  _686
REMARK  280  A    between atoms: _686  and  _687
REMARK  281  A    between atoms: _690  and  _692
REMARK  282  A    between atoms: _692  and  _693
REMARK  283  A    between atoms: _692  and  _695
REMARK  284  A    between atoms: _698  and  _700
REMARK  285  A    between atoms: _700  and  _701
REMARK  286  A    between atoms: _700  and  _703
REMARK  287  A    between atoms: _703  and  _704
REMARK  288  A    between atoms: _707  and  _709
REMARK  289  A    between atoms: _709  and  _710
REMARK  290  A    between atoms: _709  and  _712
REMARK  291  A    between atoms: _712  and  _713
REMARK  292  A    between atoms: _713  and  _714
REMARK  293  A    between atoms: _714  and  _715
REMARK  294  A    between atoms: _724  and  _726
REMARK  295  A    between atoms: _726  and  _727
REMARK  296  A    between atoms: _726  and  _729
REMARK  297  A    between atoms: _729  and  _730
REMARK  298  A    between atoms: _730  and  _731
REMARK  299  A    between atoms: _731  and  _732
REMARK  300  A    between atoms: _732  and  _733
REMARK                            x       y       z     vdW  Elec       q    Type
REMARK                         _______ _______ _______ _____ _____    ______ ____
ROOT
ATOM      1  C   ALA A   1     107.417  28.247  17.526  0.00  0.00    +0.238 C 
ATOM      2  N   SER A   2     106.186  28.180  18.060  0.00  0.00    -0.296 N 
ATOM      3  H   SER A   2     106.070  28.265  19.090  0.00  0.00    +0.150 HD
ATOM      4  O   ALA A   1     107.619  28.293  16.310  0.00  0.00    -0.274 OA
ENDROOT
BRANCH   1   5
ATOM      5  CA  ALA A   1     108.601  28.374  18.512  0.00  0.00    +0.145 C 
ATOM      6  CB  ALA A   1     109.114  27.003  18.951  0.00  0.00    +0.028 C 
BRANCH   5   7
ATOM      7  N   ALA A   1     108.222  29.199  19.684  0.00  0.00    -0.238 NA
ATOM      8  H   ALA A   1     108.268  28.800  20.643  0.00  0.00    +0.142 HD
ENDBRANCH   5   7
ENDBRANCH   1   5
BRANCH   2   9
ATOM      9  CA  SER A   2     104.988  27.987  17.203  0.00  0.00    +0.166 C 
BRANCH   9  10
ATOM     10  C   SER A   2     104.641  29.252  16.453  0.00  0.00    +0.229 C 
ATOM     11  O   SER A   2     104.082  29.177  15.365  0.00  0.00    -0.286 OA
ENDBRANCH   9  10
BRANCH   9  12
ATOM     12  CB  SER A   2     103.776  27.560  18.044  0.00  0.00    +0.165 C 
BRANCH  12  13
ATOM     13  OG  SER A   2     103.927  26.212  18.453  0.00  0.00    -0.380 OA
ATOM     14  H   SER A   2     103.993  25.631  17.654  0.00  0.00    +0.211 HD
ENDBRANCH  12  13
ENDBRANCH   9  12
ENDBRANCH   2   9
TORSDOF 6
REMARK  Name = ../refined-set-2016/4fys/4fys_pocket.pdb
REMARK  300 active torsions:
REMARK  status: ('A' for Active; 'I' for Inactive)
REMARK    1  A    between atoms: _1  and  _3
REMARK    2  A    between atoms: _3  and  _4
REMARK    3  A    between atoms: _3  and  _6
REMARK    4  A    between atoms: _6  and  _7
REMARK    5  A    between atoms: _7  and  _8
REMARK    6  A    between atoms: _13  and  _15
REMARK    7  A    between atoms: _15  and  _16
REMARK    8  A    between atoms: _15  and  _18
REMARK    9  A    between atoms: _18  and  _19
REMARK   10  A    between atoms: _19  and  _20
REMARK   11  A    between atoms: _22  and  _24
REMARK   12  A    between atoms: _24  and  _25
REMARK   13  A    between atoms: _24  and  _27
REMARK   14  A    between atoms: _27  and  _28
REMARK   15  A    between atoms: _28  and  _29
REMARK   16  A    between atoms: _34  and  _36
REMARK   17  A    between atoms: _36  and  _37
REMARK   18  A    between atoms: _40  and  _42
REMARK   19  A    between atoms: _42  and  _43
REMARK   20  A    between atoms: _42  and  _45
REMARK   21  A    between atoms: _45  and  _46
REMARK   22  A    between atoms: _51  and  _52
REMARK   23  A    between atoms: _54  and  _56
REMARK   24  A    between atoms: _56  and  _57
REMARK   25  A    between atoms: _56  and  _59
REMARK   26  A    between atoms: _59  and  _60
REMARK   27  A    between atoms: _63  and  _65
REMARK   28  A    between atoms: _65  and  _66
REMARK   29  A    between atoms: _65  and  _68
REMARK   30  A    between atoms: _68  and  _69
REMARK   31  A    between atoms: _75  and  _77
REMARK   32  A    between atoms: _77  and  _78
REMARK   33  A    between atoms: _77  and  _80
REMARK   34  A    between atoms: _80  and  _81
REMARK   35  A    between atoms: _86  and  _88
REMARK   36  A    between atoms: _88  and  _89
REMARK   37  A    between atoms: _92  and  _94
REMARK   38  A    between atoms: _94  and  _95
REMARK   39  A    between atoms: _97  and  _99
REMARK   40  A    between atoms: _99  and  _100
REMARK   41  A    between atoms: _103  and  _105
REMARK   42  A    between atoms: _105  and  _106
REMARK   43  A    between atoms: _105  and  _108
REMARK   44  A    between atoms: _108  and  _109
REMARK   45  A    between atoms: _109  and  _110
REMARK   46  A    between atoms: _112  and  _114
REMARK   47  A    between atoms: _114  and  _115
REMARK   48  A    between atoms: _114  and  _117
REMARK   49  A    between atoms: _117  and  _118
REMARK   50  A    between atoms: _118  and  _119
REMARK   51  A    between atoms: _122  and  _124
REMARK   52  A    between atoms: _124  and  _125
REMARK   53  A    between atoms: _124  and  _127
REMARK   54  A    between atoms: _127  and  _128
REMARK   55  A    between atoms: _133  and  _135
REMARK   56  A    between atoms: _135  and  _136
REMARK   57  A    between atoms: _135  and  _138
REMARK   58  A    between atoms: _138  and  _139
REMARK   59  A    between atoms: _142  and  _144
REMARK   60  A    between atoms: _144  and  _145
REMARK   61  A    between atoms: _144  and  _147
REMARK   62  A    between atoms: _147  and  _148
REMARK   63  A    between atoms: _153  and  _154
REMARK   64  A    between atoms: _156  and  _158
REMARK   65  A    between atoms: _158  and  _159
REMARK   66  A    between atoms: _158  and  _161
REMARK   67  A    between atoms: _161  and  _162
REMARK   68  A    between atoms: _162  and  _163
REMARK   69  A    between atoms: _163  and  _164
REMARK   70  A    between atoms: _173  and  _175
REMARK   71  A    between atoms: _175  and  _176
REMARK   72  A    between atoms: _175  and  _178
REMARK   73  A    between atoms: _178  and  _179
REMARK   74  A    between atoms: _184  and  _186
REMARK   75  A    between atoms: _186  and  _187
REMARK   76  A    between atoms: _186  and  _189
REMARK   77  A    between atoms: _189  and  _190
REMARK   78  A    between atoms: _192  and  _194
REMARK   79  A    between atoms: _194  and  _195
REMARK   80  A    between atoms: _194  and  _197
REMARK   81  A    between atoms: _197  and  _198
REMARK   82  A    between atoms: _200  and  _202
REMARK   83  A    between atoms: _202  and  _203
REMARK   84  A    between atoms: _202  and  _205
REMARK   85  A    between atoms: _205  and  _206
REMARK   86  A    between atoms: _206  and  _207
REMARK   87  A    between atoms: _210  and  _212
REMARK   88  A    between atoms: _212  and  _213
REMARK   89  A    between atoms: _212  and  _215
REMARK   90  A    between atoms: _215  and  _216
REMARK   91  A    between atoms: _216  and  _217
REMARK   92  A    between atoms: _217  and  _218
REMARK   93  A    between atoms: _227  and  _229
REMARK   94  A    between atoms: _229  and  _230
REMARK   95  A    between atoms: _229  and  _232
REMARK   96  A    between atoms: _235  and  _237
REMARK   97  A    between atoms: _237  and  _238
REMARK   98  A    between atoms: _237  and  _240
REMARK   99  A    between atoms: _240  and  _241
REMARK  100  A    between atoms: _244  and  _246
REMARK  101  A    between atoms: _246  and  _247
REMARK  102  A    between atoms: _246  and  _249
REMARK  103  A    between atoms: _252  and  _254
REMARK  104  A    between atoms: _254  and  _255
REMARK  105  A    between atoms: _254  and  _257
REMARK  106  A    between atoms: _257  and  _258
REMARK  107  A    between atoms: _261  and  _263
REMARK  108  A    between atoms: _263  and  _264
REMARK  109  A    between atoms: _267  and  _269
REMARK  110  A    between atoms: _269  and  _270
REMARK  111  A    between atoms: _269  and  _272
REMARK  112  A    between atoms: _272  and  _273
REMARK  113  A    between atoms: _278  and  _280
REMARK  114  A    between atoms: _280  and  _281
REMARK  115  A    between atoms: _280  and  _283
REMARK  116  A    between atoms: _283  and  _284
REMARK  117  A    between atoms: _284  and  _285
REMARK  118  A    between atoms: _288  and  _290
REMARK  119  A    between atoms: _290  and  _291
REMARK  120  A    between atoms: _290  and  _293
REMARK  121  A    between atoms: _293  and  _294
REMARK  122  A    between atoms: _299  and  _301
REMARK  123  A    between atoms: _301  and  _302
REMARK  124  A    between atoms: _301  and  _304
REMARK  125  A    between atoms: _304  and  _305
REMARK  126  A    between atoms: _315  and  _317
REMARK  127  A    between atoms: _317  and  _318
REMARK  128  A    between atoms: _317  and  _320
REMARK  129  A    between atoms: _320  and  _321
REMARK  130  A    between atoms: _324  and  _326
REMARK  131  A    between atoms: _326  and  _327
REMARK  132  A    between atoms: _326  and  _329
REMARK  133  A    between atoms: _329  and  _330
REMARK  134  A    between atoms: _335  and  _337
REMARK  135  A    between atoms: _337  and  _338
REMARK  136  A    between atoms: _337  and  _340
REMARK  137  A    between atoms: _340  and  _341
REMARK  138  A    between atoms: _341  and  _342
REMARK  139  A    between atoms: _345  and  _347
REMARK  140  A    between atoms: _347  and  _348
REMARK  141  A    between atoms: _351  and  _353
REMARK  142  A    between atoms: _353  and  _354
REMARK  143  A    between atoms: _353  and  _356
REMARK  144  A    between atoms: _356  and  _357
REMARK  145  A    between atoms: _359  and  _361
REMARK  146  A    between atoms: _361  and  _362
REMARK  147  A    between atoms: _361  and  _364
REMARK  148  A    between atoms: _364  and  _365
REMARK  149  A    between atoms: _365  and  _366
REMARK  150  A    between atoms: _369  and  _371
REMARK  151  A    between atoms: _371  and  _372
REMARK  152  A    between atoms: _371  and  _374
REMARK  153  A    between atoms: _374  and  _375
REMARK  154  A    between atoms: _380  and  _381
REMARK  155  A    between atoms: _383  and  _385
REMARK  156  A    between atoms: _385  and  _386
REMARK  157  A    between atoms: _385  and  _388
REMARK  158  A    between atoms: _388  and  _389
REMARK  159  A    between atoms: _392  and  _394
REMARK  160  A    between atoms: _394  and  _395
REMARK  161  A    between atoms: _394  and  _397
REMARK  162  A    between atoms: _397  and  _398
REMARK  163  A    between atoms: _403  and  _405
REMARK  164  A    between atoms: _405  and  _406
REMARK  165  A    between atoms: _405  and  _408
REMARK  166  A    between atoms: _408  and  _409
REMARK  167  A    between atoms: _412  and  _414
REMARK  168  A    between atoms: _414  and  _415
REMARK  169  A    between atoms: _414  and  _417
REMARK  170  A    between atoms: _417  and  _418
REMARK  171  A    between atoms: _423  and  _424
REMARK  172  A    between atoms: _426  and  _428
REMARK  173  A    between atoms: _428  and  _429
REMARK  174  A    between atoms: _428  and  _431
REMARK  175  A    between atoms: _431  and  _432
REMARK  176  A    between atoms: _432  and  _433
REMARK  177  A    between atoms: _433  and  _434
REMARK  178  A    between atoms: _443  and  _445
REMARK  179  A    between atoms: _445  and  _446
REMARK  180  A    between atoms: _445  and  _448
REMARK  181  A    between atoms: _451  and  _453
REMARK  182  A    between atoms: _453  and  _454
REMARK  183  A    between atoms: _457  and  _459
REMARK  184  A    between atoms: _459  and  _460
REMARK  185  A    between atoms: _459  and  _462
REMARK  186  A    between atoms: _465  and  _467
REMARK  187  A    between atoms: _467  and  _468
REMARK  188  A    between atoms: _467  and  _470
REMARK  189  A    between atoms: _470  and  _471
REMARK  190  A    between atoms: _473  and  _475
REMARK  191  A    between atoms: _475  and  _476
REMARK  192  A    between atoms: _475  and  _478
REMARK  193  A    between atoms: _478  and  _479
REMARK  194  A    between atoms: _479  and  _480
REMARK  195  A    between atoms: _483  and  _485
REMARK  196  A    between atoms: _485  and  _486
REMARK  197  A    between atoms: _485  and  _488
REMARK  198  A    between atoms: _488  and  _489
REMARK  199  A    between atoms: _492  and  _494
REMARK  200  A    between atoms: _494  and  _495
REMARK  201  A    between atoms: _494  and  _497
REMARK  202  A    between atoms: _497  and  _498
REMARK  203  A    between atoms: _504  and  _506
REMARK  204  A    between atoms: _506  and  _507
REMARK  205  A    between atoms: _506  and  _509
REMARK  206  A    between atoms: _509  and  _510
REMARK  207  A    between atoms: _513  and  _515
REMARK  208  A    between atoms: _515  and  _516
REMARK  209  A    between atoms: _519  and  _521
REMARK  210  A    between atoms: _521  and  _522
REMARK  211  A    between atoms: _521  and  _524
REMARK  212  A    between atoms: _524  and  _525
REMARK  213  A    between atoms: _530  and  _531
REMARK  214  A    between atoms: _533  and  _535
REMARK  215  A    between atoms: _535  and  _536
REMARK  216  A    between atoms: _535  and  _538
REMARK  217  A    between atoms: _538  and  _539
REMARK  218  A    between atoms: _541  and  _543
REMARK  219  A    between atoms: _543  and  _544
REMARK  220  A    between atoms: _543  and  _546
REMARK  221  A    between atoms: _546  and  _547
REMARK  222  A    between atoms: _550  and  _552
REMARK  223  A    between atoms: _552  and  _553
REMARK  224  A    between atoms: _552  and  _555
REMARK  225  A    between atoms: _555  and  _556
REMARK  226  A    between atoms: _558  and  _560
REMARK  227  A    between atoms: _560  and  _561
REMARK  228  A    between atoms: _560  and  _563
REMARK  229  A    between atoms: _563  and  _564
REMARK  230  A    between atoms: _567  and  _569
REMARK  231  A    between atoms: _569  and  _570
REMARK  232  A    between atoms: _569  and  _572
REMARK  233  A    between atoms: _572  and  _573
REMARK  234  A    between atoms: _575  and  _577
REMARK  235  A    between atoms: _577  and  _578
REMARK  236  A    between atoms: _577  and  _580
REMARK  237  A    between atoms: _580  and  _581
REMARK  238  A    between atoms: _584  and  _586
REMARK  239  A    between atoms: _586  and  _587
REMARK  240  A    between atoms: _586  and  _589
REMARK  241  A    between atoms: _589  and  _590
REMARK  242  A    between atoms: _595  and  _597
REMARK  243  A    between atoms: _597  and  _598
REMARK  244  A    between atoms: _597  and  _600
REMARK  245  A    between atoms: _600  and  _601
REMARK  246  A    between atoms: _603  and  _605
REMARK  247  A    between atoms: _605  and  _606
REMARK  248  A    between atoms: _605  and  _608
REMARK  249  A    between atoms: _608  and  _609
REMARK  250  A    between atoms: _615  and  _617
REMARK  251  A    between atoms: _617  and  _618
REMARK  252  A    between atoms: _617  and  _620
REMARK  253  A    between atoms: _620  and  _621
REMARK  254  A    between atoms: _623  and  _625
REMARK  255  A    between atoms: _625  and  _626
REMARK  256  A    between atoms: _625  and  _628
REMARK  257  A    between atoms: _628  and  _629
REMARK  258  A    between atoms: _635  and  _637
REMARK  259  A    between atoms: _637  and  _638
REMARK  260  A    between atoms: _637  and  _640
REMARK  261  A    between atoms: _640  and  _641
REMARK  262  A    between atoms: _643  and  _645
REMARK  263  A    between atoms: _645  and  _646
REMARK  264  A    between atoms: _645  and  _648
REMARK  265  A    between atoms: _648  and  _649
REMARK  266  A    between atoms: _654  and  _656
REMARK  267  A    between atoms: _656  and  _657
REMARK  268  A    between atoms: _656  and  _659
REMARK  269  A    between atoms: _659  and  _660
REMARK  270  A    between atoms: _663  and  _665
REMARK  271  A    between atoms: _665  and  _666
REMARK  272  A    between atoms: _665  and  _668
REMARK  273  A    between atoms: _668  and  _669
REMARK  274  A    between atoms: _672  and  _674
REMARK  275  A    between atoms: _674  and  _675
REMARK  276  A    between atoms: _674  and  _677
REMARK  277  A    between atoms: _677  and  _678
REMARK  278  A    between atoms: _678  and  _679
REMARK  279  A    between atoms: _684  and  _686
REMARK  280  A    between atoms: _686  and  _687
REMARK  281  A    between atoms: _690  and  _692
REMARK  282  A    between atoms: _692  and  _693
REMARK  283  A    between atoms: _692  and  _695
REMARK  284  A    between atoms: _698  and  _700
REMARK  285  A    between atoms: _700  and  _701
REMARK  286  A    between atoms: _700  and  _703
REMARK  287  A    between atoms: _703  and  _704
REMARK  288  A    between atoms: _707  and  _709
REMARK  289  A    between atoms: _709  and  _710
REMARK  290  A    between atoms: _709  and  _712
REMARK  291  A    between atoms: _712  and  _713
REMARK  292  A    between atoms: _713  and  _714
REMARK  293  A    between atoms: _714  and  _715
REMARK  294  A    between atoms: _724  and  _726
REMARK  295  A    between atoms: _726  and  _727
REMARK  296  A    between atoms: _726  and  _729
REMARK  297  A    between atoms: _729  and  _730
REMARK  298  A    between atoms: _730  and  _731
REMARK  299  A    between atoms: _731  and  _732
REMARK  300  A    between atoms: _732  and  _733
REMARK                            x       y       z     vdW  Elec       q    Type
REMARK                         _______ _______ _______ _____ _____    ______ ____
ROOT
ATOM      1  C   GLU A   1     107.478  29.601  11.642  0.00  0.00    +0.238 C 
ATOM      2  N   TYR A   2     106.410  30.376  11.754  0.00  0.00    -0.298 N 
ATOM      3  H   TYR A   2     106.011  30.583  12.692  0.00  0.00    +0.150 HD
ATOM      4  O   GLU A   1     107.990  29.393  10.558  0.00  0.00    -0.274 OA
ENDROOT
BRANCH   1   5
ATOM      5  CA  GLU A   1     108.102  29.020  12.926  0.00  0.00    +0.145 C 
BRANCH   5   6
ATOM      6  N   GLU A   1     108.073  29.991  14.041  0.00  0.00    -0.238 NA
ATOM      7  H   GLU A   1     107.707  29.693  14.968  0.00  0.00    +0.142 HD
ENDBRANCH   5   6
BRANCH   5   8
ATOM      8  CB  GLU A   1     107.398  27.697  13.331  0.00  0.00    +0.038 C 
BRANCH   8   9
ATOM      9  CG  GLU A   1     105.934  27.650  12.963  0.00  0.00    +0.116 C 
BRANCH   9  10
ATOM     10  CD  GLU A   1     105.179  26.411  13.443  0.00  0.00    +0.365 C 
ATOM     11  OE2 GLU A   1     105.611  25.691  14.376  0.00  0.00    -0.246 OA
ATOM     12  OE1 GLU A   1     104.088  26.190  12.875  0.00  0.00    -0.246 OA
ENDBRANCH   9  10
ENDBRANCH   8   9
ENDBRANCH   5   8
ENDBRANCH   1   5
BRANCH   2  13
ATOM     13  CA  TYR A   2     105.792  30.942  10.548  0.00  0.00    +0.141 C 
BRANCH  13  14
ATOM     14  C   TYR A   2     106.659  32.016   9.901  0.00  0.00    +0.227 C 
ATOM     15  O   TYR A   2     106.653  32.173   8.680  0.00  0.00    -0.286 OA
ENDBRANCH  13  14
BRANCH  13  16
ATOM     16  CB  TYR A   2     104.451  31.565  10.879  0.00  0.00    +0.054 C 
BRANCH  16  17
ATOM     17  CG  TYR A   2     103.378  30.554  11.200  0.00  0.00    -0.020 A 
ATOM     18  CD2 TYR A   2     103.165  30.132  12.517  0.00  0.00    -0.001 A 
ATOM     19  CE2 TYR A   2     102.172  29.209  12.837  0.00  0.00    +0.036 A 
ATOM     20  CZ  TYR A   2     101.364  28.721  11.819  0.00  0.00    +0.134 A 
ATOM     21  CE1 TYR A   2     101.555  29.139  10.492  0.00  0.00    +0.036 A 
ATOM     22  CD1 TYR A   2     102.546  30.063  10.201  0.00  0.00    -0.001 A 
BRANCH  20  23
ATOM     23  OH  TYR A   2     100.360  27.816  12.133  0.00  0.00    -0.506 OA
ATOM     24  HH  TYR A   2      99.730  28.233  12.773  0.00  0.00    +0.292 HD
ENDBRANCH  20  23
ENDBRANCH  16  17
ENDBRANCH  13  16
ENDBRANCH   2  13
TORSDOF 10
REMARK  Name = ../refined-set-2016/4fys/4fys_pocket.pdb
REMARK  300 active torsions:
REMARK  status: ('A' for Active; 'I' for Inactive)
REMARK    1  A    between atoms: _1  and  _3
REMARK    2  A    between atoms: _3  and  _4
REMARK    3  A    between atoms: _3  and  _6
REMARK    4  A    between atoms: _6  and  _7
REMARK    5  A    between atoms: _7  and  _8
REMARK    6  A    between atoms: _13  and  _15
REMARK    7  A    between atoms: _15  and  _16
REMARK    8  A    between atoms: _15  and  _18
REMARK    9  A    between atoms: _18  and  _19
REMARK   10  A    between atoms: _19  and  _20
REMARK   11  A    between atoms: _22  and  _24
REMARK   12  A    between atoms: _24  and  _25
REMARK   13  A    between atoms: _24  and  _27
REMARK   14  A    between atoms: _27  and  _28
REMARK   15  A    between atoms: _28  and  _29
REMARK   16  A    between atoms: _34  and  _36
REMARK   17  A    between atoms: _36  and  _37
REMARK   18  A    between atoms: _40  and  _42
REMARK   19  A    between atoms: _42  and  _43
REMARK   20  A    between atoms: _42  and  _45
REMARK   21  A    between atoms: _45  and  _46
REMARK   22  A    between atoms: _51  and  _52
REMARK   23  A    between atoms: _54  and  _56
REMARK   24  A    between atoms: _56  and  _57
REMARK   25  A    between atoms: _56  and  _59
REMARK   26  A    between atoms: _59  and  _60
REMARK   27  A    between atoms: _63  and  _65
REMARK   28  A    between atoms: _65  and  _66
REMARK   29  A    between atoms: _65  and  _68
REMARK   30  A    between atoms: _68  and  _69
REMARK   31  A    between atoms: _75  and  _77
REMARK   32  A    between atoms: _77  and  _78
REMARK   33  A    between atoms: _77  and  _80
REMARK   34  A    between atoms: _80  and  _81
REMARK   35  A    between atoms: _86  and  _88
REMARK   36  A    between atoms: _88  and  _89
REMARK   37  A    between atoms: _92  and  _94
REMARK   38  A    between atoms: _94  and  _95
REMARK   39  A    between atoms: _97  and  _99
REMARK   40  A    between atoms: _99  and  _100
REMARK   41  A    between atoms: _103  and  _105
REMARK   42  A    between atoms: _105  and  _106
REMARK   43  A    between atoms: _105  and  _108
REMARK   44  A    between atoms: _108  and  _109
REMARK   45  A    between atoms: _109  and  _110
REMARK   46  A    between atoms: _112  and  _114
REMARK   47  A    between atoms: _114  and  _115
REMARK   48  A    between atoms: _114  and  _117
REMARK   49  A    between atoms: _117  and  _118
REMARK   50  A    between atoms: _118  and  _119
REMARK   51  A    between atoms: _122  and  _124
REMARK   52  A    between atoms: _124  and  _125
REMARK   53  A    between atoms: _124  and  _127
REMARK   54  A    between atoms: _127  and  _128
REMARK   55  A    between atoms: _133  and  _135
REMARK   56  A    between atoms: _135  and  _136
REMARK   57  A    between atoms: _135  and  _138
REMARK   58  A    between atoms: _138  and  _139
REMARK   59  A    between atoms: _142  and  _144
REMARK   60  A    between atoms: _144  and  _145
REMARK   61  A    between atoms: _144  and  _147
REMARK   62  A    between atoms: _147  and  _148
REMARK   63  A    between atoms: _153  and  _154
REMARK   64  A    between atoms: _156  and  _158
REMARK   65  A    between atoms: _158  and  _159
REMARK   66  A    between atoms: _158  and  _161
REMARK   67  A    between atoms: _161  and  _162
REMARK   68  A    between atoms: _162  and  _163
REMARK   69  A    between atoms: _163  and  _164
REMARK   70  A    between atoms: _173  and  _175
REMARK   71  A    between atoms: _175  and  _176
REMARK   72  A    between atoms: _175  and  _178
REMARK   73  A    between atoms: _178  and  _179
REMARK   74  A    between atoms: _184  and  _186
REMARK   75  A    between atoms: _186  and  _187
REMARK   76  A    between atoms: _186  and  _189
REMARK   77  A    between atoms: _189  and  _190
REMARK   78  A    between atoms: _192  and  _194
REMARK   79  A    between atoms: _194  and  _195
REMARK   80  A    between atoms: _194  and  _197
REMARK   81  A    between atoms: _197  and  _198
REMARK   82  A    between atoms: _200  and  _202
REMARK   83  A    between atoms: _202  and  _203
REMARK   84  A    between atoms: _202  and  _205
REMARK   85  A    between atoms: _205  and  _206
REMARK   86  A    between atoms: _206  and  _207
REMARK   87  A    between atoms: _210  and  _212
REMARK   88  A    between atoms: _212  and  _213
REMARK   89  A    between atoms: _212  and  _215
REMARK   90  A    between atoms: _215  and  _216
REMARK   91  A    between atoms: _216  and  _217
REMARK   92  A    between atoms: _217  and  _218
REMARK   93  A    between atoms: _227  and  _229
REMARK   94  A    between atoms: _229  and  _230
REMARK   95  A    between atoms: _229  and  _232
REMARK   96  A    between atoms: _235  and  _237
REMARK   97  A    between atoms: _237  and  _238
REMARK   98  A    between atoms: _237  and  _240
REMARK   99  A    between atoms: _240  and  _241
REMARK  100  A    between atoms: _244  and  _246
REMARK  101  A    between atoms: _246  and  _247
REMARK  102  A    between atoms: _246  and  _249
REMARK  103  A    between atoms: _252  and  _254
REMARK  104  A    between atoms: _254  and  _255
REMARK  105  A    between atoms: _254  and  _257
REMARK  106  A    between atoms: _257  and  _258
REMARK  107  A    between atoms: _261  and  _263
REMARK  108  A    between atoms: _263  and  _264
REMARK  109  A    between atoms: _267  and  _269
REMARK  110  A    between atoms: _269  and  _270
REMARK  111  A    between atoms: _269  and  _272
REMARK  112  A    between atoms: _272  and  _273
REMARK  113  A    between atoms: _278  and  _280
REMARK  114  A    between atoms: _280  and  _281
REMARK  115  A    between atoms: _280  and  _283
REMARK  116  A    between atoms: _283  and  _284
REMARK  117  A    between atoms: _284  and  _285
REMARK  118  A    between atoms: _288  and  _290
REMARK  119  A    between atoms: _290  and  _291
REMARK  120  A    between atoms: _290  and  _293
REMARK  121  A    between atoms: _293  and  _294
REMARK  122  A    between atoms: _299  and  _301
REMARK  123  A    between atoms: _301  and  _302
REMARK  124  A    between atoms: _301  and  _304
REMARK  125  A    between atoms: _304  and  _305
REMARK  126  A    between atoms: _315  and  _317
REMARK  127  A    between atoms: _317  and  _318
REMARK  128  A    between atoms: _317  and  _320
REMARK  129  A    between atoms: _320  and  _321
REMARK  130  A    between atoms: _324  and  _326
REMARK  131  A    between atoms: _326  and  _327
REMARK  132  A    between atoms: _326  and  _329
REMARK  133  A    between atoms: _329  and  _330
REMARK  134  A    between atoms: _335  and  _337
REMARK  135  A    between atoms: _337  and  _338
REMARK  136  A    between atoms: _337  and  _340
REMARK  137  A    between atoms: _340  and  _341
REMARK  138  A    between atoms: _341  and  _342
REMARK  139  A    between atoms: _345  and  _347
REMARK  140  A    between atoms: _347  and  _348
REMARK  141  A    between atoms: _351  and  _353
REMARK  142  A    between atoms: _353  and  _354
REMARK  143  A    between atoms: _353  and  _356
REMARK  144  A    between atoms: _356  and  _357
REMARK  145  A    between atoms: _359  and  _361
REMARK  146  A    between atoms: _361  and  _362
REMARK  147  A    between atoms: _361  and  _364
REMARK  148  A    between atoms: _364  and  _365
REMARK  149  A    between atoms: _365  and  _366
REMARK  150  A    between atoms: _369  and  _371
REMARK  151  A    between atoms: _371  and  _372
REMARK  152  A    between atoms: _371  and  _374
REMARK  153  A    between atoms: _374  and  _375
REMARK  154  A    between atoms: _380  and  _381
REMARK  155  A    between atoms: _383  and  _385
REMARK  156  A    between atoms: _385  and  _386
REMARK  157  A    between atoms: _385  and  _388
REMARK  158  A    between atoms: _388  and  _389
REMARK  159  A    between atoms: _392  and  _394
REMARK  160  A    between atoms: _394  and  _395
REMARK  161  A    between atoms: _394  and  _397
REMARK  162  A    between atoms: _397  and  _398
REMARK  163  A    between atoms: _403  and  _405
REMARK  164  A    between atoms: _405  and  _406
REMARK  165  A    between atoms: _405  and  _408
REMARK  166  A    between atoms: _408  and  _409
REMARK  167  A    between atoms: _412  and  _414
REMARK  168  A    between atoms: _414  and  _415
REMARK  169  A    between atoms: _414  and  _417
REMARK  170  A    between atoms: _417  and  _418
REMARK  171  A    between atoms: _423  and  _424
REMARK  172  A    between atoms: _426  and  _428
REMARK  173  A    between atoms: _428  and  _429
REMARK  174  A    between atoms: _428  and  _431
REMARK  175  A    between atoms: _431  and  _432
REMARK  176  A    between atoms: _432  and  _433
REMARK  177  A    between atoms: _433  and  _434
REMARK  178  A    between atoms: _443  and  _445
REMARK  179  A    between atoms: _445  and  _446
REMARK  180  A    between atoms: _445  and  _448
REMARK  181  A    between atoms: _451  and  _453
REMARK  182  A    between atoms: _453  and  _454
REMARK  183  A    between atoms: _457  and  _459
REMARK  184  A    between atoms: _459  and  _460
REMARK  185  A    between atoms: _459  and  _462
REMARK  186  A    between atoms: _465  and  _467
REMARK  187  A    between atoms: _467  and  _468
REMARK  188  A    between atoms: _467  and  _470
REMARK  189  A    between atoms: _470  and  _471
REMARK  190  A    between atoms: _473  and  _475
REMARK  191  A    between atoms: _475  and  _476
REMARK  192  A    between atoms: _475  and  _478
REMARK  193  A    between atoms: _478  and  _479
REMARK  194  A    between atoms: _479  and  _480
REMARK  195  A    between atoms: _483  and  _485
REMARK  196  A    between atoms: _485  and  _486
REMARK  197  A    between atoms: _485  and  _488
REMARK  198  A    between atoms: _488  and  _489
REMARK  199  A    between atoms: _492  and  _494
REMARK  200  A    between atoms: _494  and  _495
REMARK  201  A    between atoms: _494  and  _497
REMARK  202  A    between atoms: _497  and  _498
REMARK  203  A    between atoms: _504  and  _506
REMARK  204  A    between atoms: _506  and  _507
REMARK  205  A    between atoms: _506  and  _509
REMARK  206  A    between atoms: _509  and  _510
REMARK  207  A    between atoms: _513  and  _515
REMARK  208  A    between atoms: _515  and  _516
REMARK  209  A    between atoms: _519  and  _521
REMARK  210  A    between atoms: _521  and  _522
REMARK  211  A    between atoms: _521  and  _524
REMARK  212  A    between atoms: _524  and  _525
REMARK  213  A    between atoms: _530  and  _531
REMARK  214  A    between atoms: _533  and  _535
REMARK  215  A    between atoms: _535  and  _536
REMARK  216  A    between atoms: _535  and  _538
REMARK  217  A    between atoms: _538  and  _539
REMARK  218  A    between atoms: _541  and  _543
REMARK  219  A    between atoms: _543  and  _544
REMARK  220  A    between atoms: _543  and  _546
REMARK  221  A    between atoms: _546  and  _547
REMARK  222  A    between atoms: _550  and  _552
REMARK  223  A    between atoms: _552  and  _553
REMARK  224  A    between atoms: _552  and  _555
REMARK  225  A    between atoms: _555  and  _556
REMARK  226  A    between atoms: _558  and  _560
REMARK  227  A    between atoms: _560  and  _561
REMARK  228  A    between atoms: _560  and  _563
REMARK  229  A    between atoms: _563  and  _564
REMARK  230  A    between atoms: _567  and  _569
REMARK  231  A    between atoms: _569  and  _570
REMARK  232  A    between atoms: _569  and  _572
REMARK  233  A    between atoms: _572  and  _573
REMARK  234  A    between atoms: _575  and  _577
REMARK  235  A    between atoms: _577  and  _578
REMARK  236  A    between atoms: _577  and  _580
REMARK  237  A    between atoms: _580  and  _581
REMARK  238  A    between atoms: _584  and  _586
REMARK  239  A    between atoms: _586  and  _587
REMARK  240  A    between atoms: _586  and  _589
REMARK  241  A    between atoms: _589  and  _590
REMARK  242  A    between atoms: _595  and  _597
REMARK  243  A    between atoms: _597  and  _598
REMARK  244  A    between atoms: _597  and  _600
REMARK  245  A    between atoms: _600  and  _601
REMARK  246  A    between atoms: _603  and  _605
REMARK  247  A    between atoms: _605  and  _606
REMARK  248  A    between atoms: _605  and  _608
REMARK  249  A    between atoms: _608  and  _609
REMARK  250  A    between atoms: _615  and  _617
REMARK  251  A    between atoms: _617  and  _618
REMARK  252  A    between atoms: _617  and  _620
REMARK  253  A    between atoms: _620  and  _621
REMARK  254  A    between atoms: _623  and  _625
REMARK  255  A    between atoms: _625  and  _626
REMARK  256  A    between atoms: _625  and  _628
REMARK  257  A    between atoms: _628  and  _629
REMARK  258  A    between atoms: _635  and  _637
REMARK  259  A    between atoms: _637  and  _638
REMARK  260  A    between atoms: _637  and  _640
REMARK  261  A    between atoms: _640  and  _641
REMARK  262  A    between atoms: _643  and  _645
REMARK  263  A    between atoms: _645  and  _646
REMARK  264  A    between atoms: _645  and  _648
REMARK  265  A    between atoms: _648  and  _649
REMARK  266  A    between atoms: _654  and  _656
REMARK  267  A    between atoms: _656  and  _657
REMARK  268  A    between atoms: _656  and  _659
REMARK  269  A    between atoms: _659  and  _660
REMARK  270  A    between atoms: _663  and  _665
REMARK  271  A    between atoms: _665  and  _666
REMARK  272  A    between atoms: _665  and  _668
REMARK  273  A    between atoms: _668  and  _669
REMARK  274  A    between atoms: _672  and  _674
REMARK  275  A    between atoms: _674  and  _675
REMARK  276  A    between atoms: _674  and  _677
REMARK  277  A    between atoms: _677  and  _678
REMARK  278  A    between atoms: _678  and  _679
REMARK  279  A    between atoms: _684  and  _686
REMARK  280  A    between atoms: _686  and  _687
REMARK  281  A    between atoms: _690  and  _692
REMARK  282  A    between atoms: _692  and  _693
REMARK  283  A    between atoms: _692  and  _695
REMARK  284  A    between atoms: _698  and  _700
REMARK  285  A    between atoms: _700  and  _701
REMARK  286  A    between atoms: _700  and  _703
REMARK  287  A    between atoms: _703  and  _704
REMARK  288  A    between atoms: _707  and  _709
REMARK  289  A    between atoms: _709  and  _710
REMARK  290  A    between atoms: _709  and  _712
REMARK  291  A    between atoms: _712  and  _713
REMARK  292  A    between atoms: _713  and  _714
REMARK  293  A    between atoms: _714  and  _715
REMARK  294  A    between atoms: _724  and  _726
REMARK  295  A    between atoms: _726  and  _727
REMARK  296  A    between atoms: _726  and  _729
REMARK  297  A    between atoms: _729  and  _730
REMARK  298  A    between atoms: _730  and  _731
REMARK  299  A    between atoms: _731  and  _732
REMARK  300  A    between atoms: _732  and  _733
REMARK                            x       y       z     vdW  Elec       q    Type
REMARK                         _______ _______ _______ _____ _____    ______ ____
ROOT
ATOM      1  CA  ASN A   2      96.190  26.170  12.661  0.00  0.00    +0.158 C 
ENDROOT
BRANCH   1   4
ATOM      2  C   LEU A   1      93.993  27.168  12.291  0.00  0.00    +0.238 C 
ATOM      3  O   LEU A   1      93.466  26.456  13.162  0.00  0.00    -0.274 OA
ATOM      4  N   ASN A   2      95.294  27.155  12.029  0.00  0.00    -0.297 N 
ATOM      5  H   ASN A   2      95.688  27.852  11.366  0.00  0.00    +0.150 HD
BRANCH   2   6
ATOM      6  CA  LEU A   1      93.153  28.128  11.453  0.00  0.00    +0.145 C 
BRANCH   6   7
ATOM      7  N   LEU A   1      93.755  29.474  11.389  0.00  0.00    -0.238 NA
ATOM      8  H   LEU A   1      94.299  29.766  10.552  0.00  0.00    +0.142 HD
ENDBRANCH   6   7
BRANCH   6   9
ATOM      9  CB  LEU A   1      92.993  27.553  10.050  0.00  0.00    +0.026 C 
BRANCH   9  10
ATOM     10  CG  LEU A   1      92.090  28.258   9.039  0.00  0.00    +0.002 C 
ATOM     11  CD2 LEU A   1      90.642  28.187   9.501  0.00  0.00    +0.000 C 
ATOM     12  CD1 LEU A   1      92.269  27.542   7.710  0.00  0.00    +0.000 C 
ENDBRANCH   9  10
ENDBRANCH   6   9
ENDBRANCH   2   6
ENDBRANCH   1   4
BRANCH   1  13
ATOM     13  C   ASN A   2      96.453  26.413  14.132  0.00  0.00    +0.241 C 
ATOM     14  O   ASN A   2      96.804  25.482  14.854  0.00  0.00    -0.273 OA
ATOM     15  N   ASP A   3      96.289  27.652  14.581  0.00  0.00    -0.298 N 
ATOM     16  H   ASP A   3      95.969  28.400  13.934  0.00  0.00    +0.150 HD
BRANCH  15  17
ATOM     17  CA  ASP A   3      96.556  27.965  15.979  0.00  0.00    +0.148 C 
BRANCH  17  18
ATOM     18  C   ASP A   3      95.396  28.578  16.730  0.00  0.00    +0.227 C 
ATOM     19  O   ASP A   3      94.927  27.972  17.675  0.00  0.00    -0.286 OA
ENDBRANCH  17  18
BRANCH  17  20
ATOM     20  CB  ASP A   3      97.825  28.796  16.122  0.00  0.00    +0.142 C 
BRANCH  20  21
ATOM     21  CG  ASP A   3      99.054  28.012  15.663  0.00  0.00    +0.367 C 
ATOM     22  OD2 ASP A   3      99.380  26.986  16.307  0.00  0.00    -0.246 OA
ATOM     23  OD1 ASP A   3      99.628  28.386  14.623  0.00  0.00    -0.246 OA
ENDBRANCH  20  21
ENDBRANCH  17  20
ENDBRANCH  15  17
ENDBRANCH   1  13
BRANCH   1  24
ATOM     24  CB  ASN A   2      97.543  26.089  11.928  0.00  0.00    +0.114 C 
BRANCH  24  25
ATOM     25  CG  ASN A   2      97.400  25.577  10.502  0.00  0.00    +0.222 C 
ATOM     26  OD1 ASN A   2      96.299  25.306  10.049  0.00  0.00    -0.275 OA
ATOM     27  ND2 ASN A   2      98.513  25.483   9.779  0.00  0.00    -0.329 N 
ATOM     28 HD21 ASN A   2      99.431  25.724  10.204  0.00  0.00    +0.145 HD
ATOM     29 HD22 ASN A   2      98.465  25.169   8.789  0.00  0.00    +0.145 HD
ENDBRANCH  24  25
ENDBRANCH   1  24
TORSDOF 12
REMARK  Name = ../refined-set-2016/4fys/4fys_pocket.pdb
REMARK  300 active torsions:
REMARK  status: ('A' for Active; 'I' for Inactive)
REMARK    1  A    between atoms: _1  and  _3
REMARK    2  A    between atoms: _3  and  _4
REMARK    3  A    between atoms: _3  and  _6
REMARK    4  A    between atoms: _6  and  _7
REMARK    5  A    between atoms: _7  and  _8
REMARK    6  A    between atoms: _13  and  _15
REMARK    7  A    between atoms: _15  and  _16
REMARK    8  A    between atoms: _15  and  _18
REMARK    9  A    between atoms: _18  and  _19
REMARK   10  A    between atoms: _19  and  _20
REMARK   11  A    between atoms: _22  and  _24
REMARK   12  A    between atoms: _24  and  _25
REMARK   13  A    between atoms: _24  and  _27
REMARK   14  A    between atoms: _27  and  _28
REMARK   15  A    between atoms: _28  and  _29
REMARK   16  A    between atoms: _34  and  _36
REMARK   17  A    between atoms: _36  and  _37
REMARK   18  A    between atoms: _40  and  _42
REMARK   19  A    between atoms: _42  and  _43
REMARK   20  A    between atoms: _42  and  _45
REMARK   21  A    between atoms: _45  and  _46
REMARK   22  A    between atoms: _51  and  _52
REMARK   23  A    between atoms: _54  and  _56
REMARK   24  A    between atoms: _56  and  _57
REMARK   25  A    between atoms: _56  and  _59
REMARK   26  A    between atoms: _59  and  _60
REMARK   27  A    between atoms: _63  and  _65
REMARK   28  A    between atoms: _65  and  _66
REMARK   29  A    between atoms: _65  and  _68
REMARK   30  A    between atoms: _68  and  _69
REMARK   31  A    between atoms: _75  and  _77
REMARK   32  A    between atoms: _77  and  _78
REMARK   33  A    between atoms: _77  and  _80
REMARK   34  A    between atoms: _80  and  _81
REMARK   35  A    between atoms: _86  and  _88
REMARK   36  A    between atoms: _88  and  _89
REMARK   37  A    between atoms: _92  and  _94
REMARK   38  A    between atoms: _94  and  _95
REMARK   39  A    between atoms: _97  and  _99
REMARK   40  A    between atoms: _99  and  _100
REMARK   41  A    between atoms: _103  and  _105
REMARK   42  A    between atoms: _105  and  _106
REMARK   43  A    between atoms: _105  and  _108
REMARK   44  A    between atoms: _108  and  _109
REMARK   45  A    between atoms: _109  and  _110
REMARK   46  A    between atoms: _112  and  _114
REMARK   47  A    between atoms: _114  and  _115
REMARK   48  A    between atoms: _114  and  _117
REMARK   49  A    between atoms: _117  and  _118
REMARK   50  A    between atoms: _118  and  _119
REMARK   51  A    between atoms: _122  and  _124
REMARK   52  A    between atoms: _124  and  _125
REMARK   53  A    between atoms: _124  and  _127
REMARK   54  A    between atoms: _127  and  _128
REMARK   55  A    between atoms: _133  and  _135
REMARK   56  A    between atoms: _135  and  _136
REMARK   57  A    between atoms: _135  and  _138
REMARK   58  A    between atoms: _138  and  _139
REMARK   59  A    between atoms: _142  and  _144
REMARK   60  A    between atoms: _144  and  _145
REMARK   61  A    between atoms: _144  and  _147
REMARK   62  A    between atoms: _147  and  _148
REMARK   63  A    between atoms: _153  and  _154
REMARK   64  A    between atoms: _156  and  _158
REMARK   65  A    between atoms: _158  and  _159
REMARK   66  A    between atoms: _158  and  _161
REMARK   67  A    between atoms: _161  and  _162
REMARK   68  A    between atoms: _162  and  _163
REMARK   69  A    between atoms: _163  and  _164
REMARK   70  A    between atoms: _173  and  _175
REMARK   71  A    between atoms: _175  and  _176
REMARK   72  A    between atoms: _175  and  _178
REMARK   73  A    between atoms: _178  and  _179
REMARK   74  A    between atoms: _184  and  _186
REMARK   75  A    between atoms: _186  and  _187
REMARK   76  A    between atoms: _186  and  _189
REMARK   77  A    between atoms: _189  and  _190
REMARK   78  A    between atoms: _192  and  _194
REMARK   79  A    between atoms: _194  and  _195
REMARK   80  A    between atoms: _194  and  _197
REMARK   81  A    between atoms: _197  and  _198
REMARK   82  A    between atoms: _200  and  _202
REMARK   83  A    between atoms: _202  and  _203
REMARK   84  A    between atoms: _202  and  _205
REMARK   85  A    between atoms: _205  and  _206
REMARK   86  A    between atoms: _206  and  _207
REMARK   87  A    between atoms: _210  and  _212
REMARK   88  A    between atoms: _212  and  _213
REMARK   89  A    between atoms: _212  and  _215
REMARK   90  A    between atoms: _215  and  _216
REMARK   91  A    between atoms: _216  and  _217
REMARK   92  A    between atoms: _217  and  _218
REMARK   93  A    between atoms: _227  and  _229
REMARK   94  A    between atoms: _229  and  _230
REMARK   95  A    between atoms: _229  and  _232
REMARK   96  A    between atoms: _235  and  _237
REMARK   97  A    between atoms: _237  and  _238
REMARK   98  A    between atoms: _237  and  _240
REMARK   99  A    between atoms: _240  and  _241
REMARK  100  A    between atoms: _244  and  _246
REMARK  101  A    between atoms: _246  and  _247
REMARK  102  A    between atoms: _246  and  _249
REMARK  103  A    between atoms: _252  and  _254
REMARK  104  A    between atoms: _254  and  _255
REMARK  105  A    between atoms: _254  and  _257
REMARK  106  A    between atoms: _257  and  _258
REMARK  107  A    between atoms: _261  and  _263
REMARK  108  A    between atoms: _263  and  _264
REMARK  109  A    between atoms: _267  and  _269
REMARK  110  A    between atoms: _269  and  _270
REMARK  111  A    between atoms: _269  and  _272
REMARK  112  A    between atoms: _272  and  _273
REMARK  113  A    between atoms: _278  and  _280
REMARK  114  A    between atoms: _280  and  _281
REMARK  115  A    between atoms: _280  and  _283
REMARK  116  A    between atoms: _283  and  _284
REMARK  117  A    between atoms: _284  and  _285
REMARK  118  A    between atoms: _288  and  _290
REMARK  119  A    between atoms: _290  and  _291
REMARK  120  A    between atoms: _290  and  _293
REMARK  121  A    between atoms: _293  and  _294
REMARK  122  A    between atoms: _299  and  _301
REMARK  123  A    between atoms: _301  and  _302
REMARK  124  A    between atoms: _301  and  _304
REMARK  125  A    between atoms: _304  and  _305
REMARK  126  A    between atoms: _315  and  _317
REMARK  127  A    between atoms: _317  and  _318
REMARK  128  A    between atoms: _317  and  _320
REMARK  129  A    between atoms: _320  and  _321
REMARK  130  A    between atoms: _324  and  _326
REMARK  131  A    between atoms: _326  and  _327
REMARK  132  A    between atoms: _326  and  _329
REMARK  133  A    between atoms: _329  and  _330
REMARK  134  A    between atoms: _335  and  _337
REMARK  135  A    between atoms: _337  and  _338
REMARK  136  A    between atoms: _337  and  _340
REMARK  137  A    between atoms: _340  and  _341
REMARK  138  A    between atoms: _341  and  _342
REMARK  139  A    between atoms: _345  and  _347
REMARK  140  A    between atoms: _347  and  _348
REMARK  141  A    between atoms: _351  and  _353
REMARK  142  A    between atoms: _353  and  _354
REMARK  143  A    between atoms: _353  and  _356
REMARK  144  A    between atoms: _356  and  _357
REMARK  145  A    between atoms: _359  and  _361
REMARK  146  A    between atoms: _361  and  _362
REMARK  147  A    between atoms: _361  and  _364
REMARK  148  A    between atoms: _364  and  _365
REMARK  149  A    between atoms: _365  and  _366
REMARK  150  A    between atoms: _369  and  _371
REMARK  151  A    between atoms: _371  and  _372
REMARK  152  A    between atoms: _371  and  _374
REMARK  153  A    between atoms: _374  and  _375
REMARK  154  A    between atoms: _380  and  _381
REMARK  155  A    between atoms: _383  and  _385
REMARK  156  A    between atoms: _385  and  _386
REMARK  157  A    between atoms: _385  and  _388
REMARK  158  A    between atoms: _388  and  _389
REMARK  159  A    between atoms: _392  and  _394
REMARK  160  A    between atoms: _394  and  _395
REMARK  161  A    between atoms: _394  and  _397
REMARK  162  A    between atoms: _397  and  _398
REMARK  163  A    between atoms: _403  and  _405
REMARK  164  A    between atoms: _405  and  _406
REMARK  165  A    between atoms: _405  and  _408
REMARK  166  A    between atoms: _408  and  _409
REMARK  167  A    between atoms: _412  and  _414
REMARK  168  A    between atoms: _414  and  _415
REMARK  169  A    between atoms: _414  and  _417
REMARK  170  A    between atoms: _417  and  _418
REMARK  171  A    between atoms: _423  and  _424
REMARK  172  A    between atoms: _426  and  _428
REMARK  173  A    between atoms: _428  and  _429
REMARK  174  A    between atoms: _428  and  _431
REMARK  175  A    between atoms: _431  and  _432
REMARK  176  A    between atoms: _432  and  _433
REMARK  177  A    between atoms: _433  and  _434
REMARK  178  A    between atoms: _443  and  _445
REMARK  179  A    between atoms: _445  and  _446
REMARK  180  A    between atoms: _445  and  _448
REMARK  181  A    between atoms: _451  and  _453
REMARK  182  A    between atoms: _453  and  _454
REMARK  183  A    between atoms: _457  and  _459
REMARK  184  A    between atoms: _459  and  _460
REMARK  185  A    between atoms: _459  and  _462
REMARK  186  A    between atoms: _465  and  _467
REMARK  187  A    between atoms: _467  and  _468
REMARK  188  A    between atoms: _467  and  _470
REMARK  189  A    between atoms: _470  and  _471
REMARK  190  A    between atoms: _473  and  _475
REMARK  191  A    between atoms: _475  and  _476
REMARK  192  A    between atoms: _475  and  _478
REMARK  193  A    between atoms: _478  and  _479
REMARK  194  A    between atoms: _479  and  _480
REMARK  195  A    between atoms: _483  and  _485
REMARK  196  A    between atoms: _485  and  _486
REMARK  197  A    between atoms: _485  and  _488
REMARK  198  A    between atoms: _488  and  _489
REMARK  199  A    between atoms: _492  and  _494
REMARK  200  A    between atoms: _494  and  _495
REMARK  201  A    between atoms: _494  and  _497
REMARK  202  A    between atoms: _497  and  _498
REMARK  203  A    between atoms: _504  and  _506
REMARK  204  A    between atoms: _506  and  _507
REMARK  205  A    between atoms: _506  and  _509
REMARK  206  A    between atoms: _509  and  _510
REMARK  207  A    between atoms: _513  and  _515
REMARK  208  A    between atoms: _515  and  _516
REMARK  209  A    between atoms: _519  and  _521
REMARK  210  A    between atoms: _521  and  _522
REMARK  211  A    between atoms: _521  and  _524
REMARK  212  A    between atoms: _524  and  _525
REMARK  213  A    between atoms: _530  and  _531
REMARK  214  A    between atoms: _533  and  _535
REMARK  215  A    between atoms: _535  and  _536
REMARK  216  A    between atoms: _535  and  _538
REMARK  217  A    between atoms: _538  and  _539
REMARK  218  A    between atoms: _541  and  _543
REMARK  219  A    between atoms: _543  and  _544
REMARK  220  A    between atoms: _543  and  _546
REMARK  221  A    between atoms: _546  and  _547
REMARK  222  A    between atoms: _550  and  _552
REMARK  223  A    between atoms: _552  and  _553
REMARK  224  A    between atoms: _552  and  _555
REMARK  225  A    between atoms: _555  and  _556
REMARK  226  A    between atoms: _558  and  _560
REMARK  227  A    between atoms: _560  and  _561
REMARK  228  A    between atoms: _560  and  _563
REMARK  229  A    between atoms: _563  and  _564
REMARK  230  A    between atoms: _567  and  _569
REMARK  231  A    between atoms: _569  and  _570
REMARK  232  A    between atoms: _569  and  _572
REMARK  233  A    between atoms: _572  and  _573
REMARK  234  A    between atoms: _575  and  _577
REMARK  235  A    between atoms: _577  and  _578
REMARK  236  A    between atoms: _577  and  _580
REMARK  237  A    between atoms: _580  and  _581
REMARK  238  A    between atoms: _584  and  _586
REMARK  239  A    between atoms: _586  and  _587
REMARK  240  A    between atoms: _586  and  _589
REMARK  241  A    between atoms: _589  and  _590
REMARK  242  A    between atoms: _595  and  _597
REMARK  243  A    between atoms: _597  and  _598
REMARK  244  A    between atoms: _597  and  _600
REMARK  245  A    between atoms: _600  and  _601
REMARK  246  A    between atoms: _603  and  _605
REMARK  247  A    between atoms: _605  and  _606
REMARK  248  A    between atoms: _605  and  _608
REMARK  249  A    between atoms: _608  and  _609
REMARK  250  A    between atoms: _615  and  _617
REMARK  251  A    between atoms: _617  and  _618
REMARK  252  A    between atoms: _617  and  _620
REMARK  253  A    between atoms: _620  and  _621
REMARK  254  A    between atoms: _623  and  _625
REMARK  255  A    between atoms: _625  and  _626
REMARK  256  A    between atoms: _625  and  _628
REMARK  257  A    between atoms: _628  and  _629
REMARK  258  A    between atoms: _635  and  _637
REMARK  259  A    between atoms: _637  and  _638
REMARK  260  A    between atoms: _637  and  _640
REMARK  261  A    between atoms: _640  and  _641
REMARK  262  A    between atoms: _643  and  _645
REMARK  263  A    between atoms: _645  and  _646
REMARK  264  A    between atoms: _645  and  _648
REMARK  265  A    between atoms: _648  and  _649
REMARK  266  A    between atoms: _654  and  _656
REMARK  267  A    between atoms: _656  and  _657
REMARK  268  A    between atoms: _656  and  _659
REMARK  269  A    between atoms: _659  and  _660
REMARK  270  A    between atoms: _663  and  _665
REMARK  271  A    between atoms: _665  and  _666
REMARK  272  A    between atoms: _665  and  _668
REMARK  273  A    between atoms: _668  and  _669
REMARK  274  A    between atoms: _672  and  _674
REMARK  275  A    between atoms: _674  and  _675
REMARK  276  A    between atoms: _674  and  _677
REMARK  277  A    between atoms: _677  and  _678
REMARK  278  A    between atoms: _678  and  _679
REMARK  279  A    between atoms: _684  and  _686
REMARK  280  A    between atoms: _686  and  _687
REMARK  281  A    between atoms: _690  and  _692
REMARK  282  A    between atoms: _692  and  _693
REMARK  283  A    between atoms: _692  and  _695
REMARK  284  A    between atoms: _698  and  _700
REMARK  285  A    between atoms: _700  and  _701
REMARK  286  A    between atoms: _700  and  _703
REMARK  287  A    between atoms: _703  and  _704
REMARK  288  A    between atoms: _707  and  _709
REMARK  289  A    between atoms: _709  and  _710
REMARK  290  A    between atoms: _709  and  _712
REMARK  291  A    between atoms: _712  and  _713
REMARK  292  A    between atoms: _713  and  _714
REMARK  293  A    between atoms: _714  and  _715
REMARK  294  A    between atoms: _724  and  _726
REMARK  295  A    between atoms: _726  and  _727
REMARK  296  A    between atoms: _726  and  _729
REMARK  297  A    between atoms: _729  and  _730
REMARK  298  A    between atoms: _730  and  _731
REMARK  299  A    between atoms: _731  and  _732
REMARK  300  A    between atoms: _732  and  _733
REMARK                            x       y       z     vdW  Elec       q    Type
REMARK                         _______ _______ _______ _____ _____    ______ ____
ROOT
ATOM      1  CA  ARG A   2      92.542  25.165  17.034  0.00  0.00    +0.149 C 
ENDROOT
BRANCH   1   4
ATOM      2  C   TYR A   1      90.993  27.000  16.677  0.00  0.00    +0.239 C 
ATOM      3  O   TYR A   1      90.119  26.461  17.386  0.00  0.00    -0.274 OA
ATOM      4  N   ARG A   2      92.170  26.438  16.433  0.00  0.00    -0.297 N 
ATOM      5  H   ARG A   2      92.841  26.917  15.799  0.00  0.00    +0.150 HD
BRANCH   2   6
ATOM      6  CA  TYR A   1      90.789  28.413  16.122  0.00  0.00    +0.149 C 
BRANCH   6   7
ATOM      7  N   TYR A   1      92.040  29.185  16.062  0.00  0.00    -0.238 NA
ATOM      8  H   TYR A   1      92.461  29.394  15.134  0.00  0.00    +0.142 HD
ENDBRANCH   6   7
BRANCH   6   9
ATOM      9  CB  TYR A   1      89.980  28.493  14.783  0.00  0.00    +0.053 C 
BRANCH   9  10
ATOM     10  CG  TYR A   1      89.435  29.909  14.549  0.00  0.00    -0.020 A 
ATOM     11  CD2 TYR A   1      89.062  30.671  15.623  0.00  0.00    -0.001 A 
ATOM     12  CE2 TYR A   1      88.558  31.957  15.485  0.00  0.00    +0.036 A 
ATOM     13  CZ  TYR A   1      88.409  32.536  14.235  0.00  0.00    +0.134 A 
ATOM     14  CE1 TYR A   1      88.767  31.812  13.108  0.00  0.00    +0.036 A 
ATOM     15  CD1 TYR A   1      89.265  30.486  13.255  0.00  0.00    -0.001 A 
BRANCH  13  16
ATOM     16  OH  TYR A   1      87.909  33.852  14.264  0.00  0.00    -0.506 OA
ATOM     17  HH  TYR A   1      87.738  34.118  15.202  0.00  0.00    +0.292 HD
ENDBRANCH  13  16
ENDBRANCH   9  10
ENDBRANCH   6   9
ENDBRANCH   2   6
ENDBRANCH   1   4
BRANCH   1  18
ATOM     18  C   ARG A   2      92.472  25.226  18.576  0.00  0.00    +0.241 C 
ATOM     19  N   VAL A   3      93.174  26.184  19.204  0.00  0.00    -0.298 N 
ATOM     20  H   VAL A   3      93.713  26.877  18.646  0.00  0.00    +0.150 HD
ATOM     21  O   ARG A   2      91.753  24.435  19.173  0.00  0.00    -0.273 OA
BRANCH  19  22
ATOM     22  CA  VAL A   3      93.188  26.261  20.666  0.00  0.00    +0.137 C 
BRANCH  22  23
ATOM     23  CB  VAL A   3      94.430  27.045  21.186  0.00  0.00    +0.026 C 
ATOM     24  CG2 VAL A   3      94.577  26.855  22.687  0.00  0.00    +0.002 C 
ATOM     25  CG1 VAL A   3      94.313  28.533  20.808  0.00  0.00    +0.002 C 
ENDBRANCH  22  23
BRANCH  22  26
ATOM     26  C   VAL A   3      91.870  26.821  21.264  0.00  0.00    +0.227 C 
ATOM     27  O   VAL A   3      91.493  26.490  22.381  0.00  0.00    -0.286 OA
ENDBRANCH  22  26
ENDBRANCH  19  22
ENDBRANCH   1  18
BRANCH   1  28
ATOM     28  CB  ARG A   2      93.916  24.712  16.578  0.00  0.00    +0.033 C 
BRANCH  28  29
ATOM     29  CG  ARG A   2      94.227  23.302  17.021  0.00  0.00    +0.045 C 
BRANCH  29  30
ATOM     30  CD  ARG A   2      95.576  22.848  16.504  0.00  0.00    +0.174 C 
BRANCH  30  31
ATOM     31  NE  ARG A   2      96.710  23.310  17.327  0.00  0.00    -0.265 N 
ATOM     32  CZ  ARG A   2      97.189  22.671  18.405  0.00  0.00    +0.342 C 
ATOM     33  NH2 ARG A   2      98.249  23.158  19.076  0.00  0.00    -0.292 N 
ATOM     34 HH21 ARG A   2      98.612  22.655  19.910  0.00  0.00    +0.255 HD
ATOM     35 HH22 ARG A   2      98.705  24.038  18.760  0.00  0.00    +0.255 HD
ATOM     36  NH1 ARG A   2      96.619  21.535  18.812  0.00  0.00    -0.292 N 
ATOM     37 HH11 ARG A   2      96.989  21.038  19.647  0.00  0.00    +0.255 HD
ATOM     38 HH12 ARG A   2      95.805  21.147  18.294  0.00  0.00    +0.255 HD
ATOM     39  HE  ARG A   2      97.173  24.199  17.050  0.00  0.00    +0.259 HD
ENDBRANCH  30  31
ENDBRANCH  29  30
ENDBRANCH  28  29
ENDBRANCH   1  28
TORSDOF 14
REMARK  Name = ../refined-set-2016/4fys/4fys_pocket.pdb
REMARK  300 active torsions:
REMARK  status: ('A' for Active; 'I' for Inactive)
REMARK    1  A    between atoms: _1  and  _3
REMARK    2  A    between atoms: _3  and  _4
REMARK    3  A    between atoms: _3  and  _6
REMARK    4  A    between atoms: _6  and  _7
REMARK    5  A    between atoms: _7  and  _8
REMARK    6  A    between atoms: _13  and  _15
REMARK    7  A    between atoms: _15  and  _16
REMARK    8  A    between atoms: _15  and  _18
REMARK    9  A    between atoms: _18  and  _19
REMARK   10  A    between atoms: _19  and  _20
REMARK   11  A    between atoms: _22  and  _24
REMARK   12  A    between atoms: _24  and  _25
REMARK   13  A    between atoms: _24  and  _27
REMARK   14  A    between atoms: _27  and  _28
REMARK   15  A    between atoms: _28  and  _29
REMARK   16  A    between atoms: _34  and  _36
REMARK   17  A    between atoms: _36  and  _37
REMARK   18  A    between atoms: _40  and  _42
REMARK   19  A    between atoms: _42  and  _43
REMARK   20  A    between atoms: _42  and  _45
REMARK   21  A    between atoms: _45  and  _46
REMARK   22  A    between atoms: _51  and  _52
REMARK   23  A    between atoms: _54  and  _56
REMARK   24  A    between atoms: _56  and  _57
REMARK   25  A    between atoms: _56  and  _59
REMARK   26  A    between atoms: _59  and  _60
REMARK   27  A    between atoms: _63  and  _65
REMARK   28  A    between atoms: _65  and  _66
REMARK   29  A    between atoms: _65  and  _68
REMARK   30  A    between atoms: _68  and  _69
REMARK   31  A    between atoms: _75  and  _77
REMARK   32  A    between atoms: _77  and  _78
REMARK   33  A    between atoms: _77  and  _80
REMARK   34  A    between atoms: _80  and  _81
REMARK   35  A    between atoms: _86  and  _88
REMARK   36  A    between atoms: _88  and  _89
REMARK   37  A    between atoms: _92  and  _94
REMARK   38  A    between atoms: _94  and  _95
REMARK   39  A    between atoms: _97  and  _99
REMARK   40  A    between atoms: _99  and  _100
REMARK   41  A    between atoms: _103  and  _105
REMARK   42  A    between atoms: _105  and  _106
REMARK   43  A    between atoms: _105  and  _108
REMARK   44  A    between atoms: _108  and  _109
REMARK   45  A    between atoms: _109  and  _110
REMARK   46  A    between atoms: _112  and  _114
REMARK   47  A    between atoms: _114  and  _115
REMARK   48  A    between atoms: _114  and  _117
REMARK   49  A    between atoms: _117  and  _118
REMARK   50  A    between atoms: _118  and  _119
REMARK   51  A    between atoms: _122  and  _124
REMARK   52  A    between atoms: _124  and  _125
REMARK   53  A    between atoms: _124  and  _127
REMARK   54  A    between atoms: _127  and  _128
REMARK   55  A    between atoms: _133  and  _135
REMARK   56  A    between atoms: _135  and  _136
REMARK   57  A    between atoms: _135  and  _138
REMARK   58  A    between atoms: _138  and  _139
REMARK   59  A    between atoms: _142  and  _144
REMARK   60  A    between atoms: _144  and  _145
REMARK   61  A    between atoms: _144  and  _147
REMARK   62  A    between atoms: _147  and  _148
REMARK   63  A    between atoms: _153  and  _154
REMARK   64  A    between atoms: _156  and  _158
REMARK   65  A    between atoms: _158  and  _159
REMARK   66  A    between atoms: _158  and  _161
REMARK   67  A    between atoms: _161  and  _162
REMARK   68  A    between atoms: _162  and  _163
REMARK   69  A    between atoms: _163  and  _164
REMARK   70  A    between atoms: _173  and  _175
REMARK   71  A    between atoms: _175  and  _176
REMARK   72  A    between atoms: _175  and  _178
REMARK   73  A    between atoms: _178  and  _179
REMARK   74  A    between atoms: _184  and  _186
REMARK   75  A    between atoms: _186  and  _187
REMARK   76  A    between atoms: _186  and  _189
REMARK   77  A    between atoms: _189  and  _190
REMARK   78  A    between atoms: _192  and  _194
REMARK   79  A    between atoms: _194  and  _195
REMARK   80  A    between atoms: _194  and  _197
REMARK   81  A    between atoms: _197  and  _198
REMARK   82  A    between atoms: _200  and  _202
REMARK   83  A    between atoms: _202  and  _203
REMARK   84  A    between atoms: _202  and  _205
REMARK   85  A    between atoms: _205  and  _206
REMARK   86  A    between atoms: _206  and  _207
REMARK   87  A    between atoms: _210  and  _212
REMARK   88  A    between atoms: _212  and  _213
REMARK   89  A    between atoms: _212  and  _215
REMARK   90  A    between atoms: _215  and  _216
REMARK   91  A    between atoms: _216  and  _217
REMARK   92  A    between atoms: _217  and  _218
REMARK   93  A    between atoms: _227  and  _229
REMARK   94  A    between atoms: _229  and  _230
REMARK   95  A    between atoms: _229  and  _232
REMARK   96  A    between atoms: _235  and  _237
REMARK   97  A    between atoms: _237  and  _238
REMARK   98  A    between atoms: _237  and  _240
REMARK   99  A    between atoms: _240  and  _241
REMARK  100  A    between atoms: _244  and  _246
REMARK  101  A    between atoms: _246  and  _247
REMARK  102  A    between atoms: _246  and  _249
REMARK  103  A    between atoms: _252  and  _254
REMARK  104  A    between atoms: _254  and  _255
REMARK  105  A    between atoms: _254  and  _257
REMARK  106  A    between atoms: _257  and  _258
REMARK  107  A    between atoms: _261  and  _263
REMARK  108  A    between atoms: _263  and  _264
REMARK  109  A    between atoms: _267  and  _269
REMARK  110  A    between atoms: _269  and  _270
REMARK  111  A    between atoms: _269  and  _272
REMARK  112  A    between atoms: _272  and  _273
REMARK  113  A    between atoms: _278  and  _280
REMARK  114  A    between atoms: _280  and  _281
REMARK  115  A    between atoms: _280  and  _283
REMARK  116  A    between atoms: _283  and  _284
REMARK  117  A    between atoms: _284  and  _285
REMARK  118  A    between atoms: _288  and  _290
REMARK  119  A    between atoms: _290  and  _291
REMARK  120  A    between atoms: _290  and  _293
REMARK  121  A    between atoms: _293  and  _294
REMARK  122  A    between atoms: _299  and  _301
REMARK  123  A    between atoms: _301  and  _302
REMARK  124  A    between atoms: _301  and  _304
REMARK  125  A    between atoms: _304  and  _305
REMARK  126  A    between atoms: _315  and  _317
REMARK  127  A    between atoms: _317  and  _318
REMARK  128  A    between atoms: _317  and  _320
REMARK  129  A    between atoms: _320  and  _321
REMARK  130  A    between atoms: _324  and  _326
REMARK  131  A    between atoms: _326  and  _327
REMARK  132  A    between atoms: _326  and  _329
REMARK  133  A    between atoms: _329  and  _330
REMARK  134  A    between atoms: _335  and  _337
REMARK  135  A    between atoms: _337  and  _338
REMARK  136  A    between atoms: _337  and  _340
REMARK  137  A    between atoms: _340  and  _341
REMARK  138  A    between atoms: _341  and  _342
REMARK  139  A    between atoms: _345  and  _347
REMARK  140  A    between atoms: _347  and  _348
REMARK  141  A    between atoms: _351  and  _353
REMARK  142  A    between atoms: _353  and  _354
REMARK  143  A    between atoms: _353  and  _356
REMARK  144  A    between atoms: _356  and  _357
REMARK  145  A    between atoms: _359  and  _361
REMARK  146  A    between atoms: _361  and  _362
REMARK  147  A    between atoms: _361  and  _364
REMARK  148  A    between atoms: _364  and  _365
REMARK  149  A    between atoms: _365  and  _366
REMARK  150  A    between atoms: _369  and  _371
REMARK  151  A    between atoms: _371  and  _372
REMARK  152  A    between atoms: _371  and  _374
REMARK  153  A    between atoms: _374  and  _375
REMARK  154  A    between atoms: _380  and  _381
REMARK  155  A    between atoms: _383  and  _385
REMARK  156  A    between atoms: _385  and  _386
REMARK  157  A    between atoms: _385  and  _388
REMARK  158  A    between atoms: _388  and  _389
REMARK  159  A    between atoms: _392  and  _394
REMARK  160  A    between atoms: _394  and  _395
REMARK  161  A    between atoms: _394  and  _397
REMARK  162  A    between atoms: _397  and  _398
REMARK  163  A    between atoms: _403  and  _405
REMARK  164  A    between atoms: _405  and  _406
REMARK  165  A    between atoms: _405  and  _408
REMARK  166  A    between atoms: _408  and  _409
REMARK  167  A    between atoms: _412  and  _414
REMARK  168  A    between atoms: _414  and  _415
REMARK  169  A    between atoms: _414  and  _417
REMARK  170  A    between atoms: _417  and  _418
REMARK  171  A    between atoms: _423  and  _424
REMARK  172  A    between atoms: _426  and  _428
REMARK  173  A    between atoms: _428  and  _429
REMARK  174  A    between atoms: _428  and  _431
REMARK  175  A    between atoms: _431  and  _432
REMARK  176  A    between atoms: _432  and  _433
REMARK  177  A    between atoms: _433  and  _434
REMARK  178  A    between atoms: _443  and  _445
REMARK  179  A    between atoms: _445  and  _446
REMARK  180  A    between atoms: _445  and  _448
REMARK  181  A    between atoms: _451  and  _453
REMARK  182  A    between atoms: _453  and  _454
REMARK  183  A    between atoms: _457  and  _459
REMARK  184  A    between atoms: _459  and  _460
REMARK  185  A    between atoms: _459  and  _462
REMARK  186  A    between atoms: _465  and  _467
REMARK  187  A    between atoms: _467  and  _468
REMARK  188  A    between atoms: _467  and  _470
REMARK  189  A    between atoms: _470  and  _471
REMARK  190  A    between atoms: _473  and  _475
REMARK  191  A    between atoms: _475  and  _476
REMARK  192  A    between atoms: _475  and  _478
REMARK  193  A    between atoms: _478  and  _479
REMARK  194  A    between atoms: _479  and  _480
REMARK  195  A    between atoms: _483  and  _485
REMARK  196  A    between atoms: _485  and  _486
REMARK  197  A    between atoms: _485  and  _488
REMARK  198  A    between atoms: _488  and  _489
REMARK  199  A    between atoms: _492  and  _494
REMARK  200  A    between atoms: _494  and  _495
REMARK  201  A    between atoms: _494  and  _497
REMARK  202  A    between atoms: _497  and  _498
REMARK  203  A    between atoms: _504  and  _506
REMARK  204  A    between atoms: _506  and  _507
REMARK  205  A    between atoms: _506  and  _509
REMARK  206  A    between atoms: _509  and  _510
REMARK  207  A    between atoms: _513  and  _515
REMARK  208  A    between atoms: _515  and  _516
REMARK  209  A    between atoms: _519  and  _521
REMARK  210  A    between atoms: _521  and  _522
REMARK  211  A    between atoms: _521  and  _524
REMARK  212  A    between atoms: _524  and  _525
REMARK  213  A    between atoms: _530  and  _531
REMARK  214  A    between atoms: _533  and  _535
REMARK  215  A    between atoms: _535  and  _536
REMARK  216  A    between atoms: _535  and  _538
REMARK  217  A    between atoms: _538  and  _539
REMARK  218  A    between atoms: _541  and  _543
REMARK  219  A    between atoms: _543  and  _544
REMARK  220  A    between atoms: _543  and  _546
REMARK  221  A    between atoms: _546  and  _547
REMARK  222  A    between atoms: _550  and  _552
REMARK  223  A    between atoms: _552  and  _553
REMARK  224  A    between atoms: _552  and  _555
REMARK  225  A    between atoms: _555  and  _556
REMARK  226  A    between atoms: _558  and  _560
REMARK  227  A    between atoms: _560  and  _561
REMARK  228  A    between atoms: _560  and  _563
REMARK  229  A    between atoms: _563  and  _564
REMARK  230  A    between atoms: _567  and  _569
REMARK  231  A    between atoms: _569  and  _570
REMARK  232  A    between atoms: _569  and  _572
REMARK  233  A    between atoms: _572  and  _573
REMARK  234  A    between atoms: _575  and  _577
REMARK  235  A    between atoms: _577  and  _578
REMARK  236  A    between atoms: _577  and  _580
REMARK  237  A    between atoms: _580  and  _581
REMARK  238  A    between atoms: _584  and  _586
REMARK  239  A    between atoms: _586  and  _587
REMARK  240  A    between atoms: _586  and  _589
REMARK  241  A    between atoms: _589  and  _590
REMARK  242  A    between atoms: _595  and  _597
REMARK  243  A    between atoms: _597  and  _598
REMARK  244  A    between atoms: _597  and  _600
REMARK  245  A    between atoms: _600  and  _601
REMARK  246  A    between atoms: _603  and  _605
REMARK  247  A    between atoms: _605  and  _606
REMARK  248  A    between atoms: _605  and  _608
REMARK  249  A    between atoms: _608  and  _609
REMARK  250  A    between atoms: _615  and  _617
REMARK  251  A    between atoms: _617  and  _618
REMARK  252  A    between atoms: _617  and  _620
REMARK  253  A    between atoms: _620  and  _621
REMARK  254  A    between atoms: _623  and  _625
REMARK  255  A    between atoms: _625  and  _626
REMARK  256  A    between atoms: _625  and  _628
REMARK  257  A    between atoms: _628  and  _629
REMARK  258  A    between atoms: _635  and  _637
REMARK  259  A    between atoms: _637  and  _638
REMARK  260  A    between atoms: _637  and  _640
REMARK  261  A    between atoms: _640  and  _641
REMARK  262  A    between atoms: _643  and  _645
REMARK  263  A    between atoms: _645  and  _646
REMARK  264  A    between atoms: _645  and  _648
REMARK  265  A    between atoms: _648  and  _649
REMARK  266  A    between atoms: _654  and  _656
REMARK  267  A    between atoms: _656  and  _657
REMARK  268  A    between atoms: _656  and  _659
REMARK  269  A    between atoms: _659  and  _660
REMARK  270  A    between atoms: _663  and  _665
REMARK  271  A    between atoms: _665  and  _666
REMARK  272  A    between atoms: _665  and  _668
REMARK  273  A    between atoms: _668  and  _669
REMARK  274  A    between atoms: _672  and  _674
REMARK  275  A    between atoms: _674  and  _675
REMARK  276  A    between atoms: _674  and  _677
REMARK  277  A    between atoms: _677  and  _678
REMARK  278  A    between atoms: _678  and  _679
REMARK  279  A    between atoms: _684  and  _686
REMARK  280  A    between atoms: _686  and  _687
REMARK  281  A    between atoms: _690  and  _692
REMARK  282  A    between atoms: _692  and  _693
REMARK  283  A    between atoms: _692  and  _695
REMARK  284  A    between atoms: _698  and  _700
REMARK  285  A    between atoms: _700  and  _701
REMARK  286  A    between atoms: _700  and  _703
REMARK  287  A    between atoms: _703  and  _704
REMARK  288  A    between atoms: _707  and  _709
REMARK  289  A    between atoms: _709  and  _710
REMARK  290  A    between atoms: _709  and  _712
REMARK  291  A    between atoms: _712  and  _713
REMARK  292  A    between atoms: _713  and  _714
REMARK  293  A    between atoms: _714  and  _715
REMARK  294  A    between atoms: _724  and  _726
REMARK  295  A    between atoms: _726  and  _727
REMARK  296  A    between atoms: _726  and  _729
REMARK  297  A    between atoms: _729  and  _730
REMARK  298  A    between atoms: _730  and  _731
REMARK  299  A    between atoms: _731  and  _732
REMARK  300  A    between atoms: _732  and  _733
REMARK                            x       y       z     vdW  Elec       q    Type
REMARK                         _______ _______ _______ _____ _____    ______ ____
ROOT
ATOM      1  C   ALA A   1      88.228  24.471  22.687  0.00  0.00    +0.238 C 
ATOM      2  O   ALA A   1      87.315  24.447  23.503  0.00  0.00    -0.274 OA
ATOM      3  N   VAL A   2      89.471  24.194  23.036  0.00  0.00    -0.298 N 
ATOM      4  H   VAL A   2      90.245  24.279  22.346  0.00  0.00    +0.150 HD
ENDROOT
BRANCH   1   5
ATOM      5  CA  ALA A   1      87.980  24.920  21.243  0.00  0.00    +0.145 C 
ATOM      6  CB  ALA A   1      88.097  23.716  20.261  0.00  0.00    +0.028 C 
BRANCH   5   7
ATOM      7  N   ALA A   1      88.903  26.018  20.877  0.00  0.00    -0.238 NA
ATOM      8  H   ALA A   1      89.572  25.871  20.095  0.00  0.00    +0.142 HD
ENDBRANCH   5   7
ENDBRANCH   1   5
BRANCH   3   9
ATOM      9  CA  VAL A   2      89.743  23.764  24.413  0.00  0.00    +0.137 C 
BRANCH   9  10
ATOM     10  CB  VAL A   2      91.042  22.956  24.514  0.00  0.00    +0.026 C 
ATOM     11  CG2 VAL A   2      91.148  22.291  25.865  0.00  0.00    +0.002 C 
ATOM     12  CG1 VAL A   2      92.272  23.823  24.258  0.00  0.00    +0.002 C 
ENDBRANCH   9  10
BRANCH   9  13
ATOM     13  C   VAL A   2      89.695  24.948  25.410  0.00  0.00    +0.227 C 
ATOM     14  O   VAL A   2      89.242  24.798  26.549  0.00  0.00    -0.286 OA
ENDBRANCH   9  13
ENDBRANCH   3   9
TORSDOF 5
REMARK  Name = ../refined-set-2016/4fys/4fys_pocket.pdb
REMARK  300 active torsions:
REMARK  status: ('A' for Active; 'I' for Inactive)
REMARK    1  A    between atoms: _1  and  _3
REMARK    2  A    between atoms: _3  and  _4
REMARK    3  A    between atoms: _3  and  _6
REMARK    4  A    between atoms: _6  and  _7
REMARK    5  A    between atoms: _7  and  _8
REMARK    6  A    between atoms: _13  and  _15
REMARK    7  A    between atoms: _15  and  _16
REMARK    8  A    between atoms: _15  and  _18
REMARK    9  A    between atoms: _18  and  _19
REMARK   10  A    between atoms: _19  and  _20
REMARK   11  A    between atoms: _22  and  _24
REMARK   12  A    between atoms: _24  and  _25
REMARK   13  A    between atoms: _24  and  _27
REMARK   14  A    between atoms: _27  and  _28
REMARK   15  A    between atoms: _28  and  _29
REMARK   16  A    between atoms: _34  and  _36
REMARK   17  A    between atoms: _36  and  _37
REMARK   18  A    between atoms: _40  and  _42
REMARK   19  A    between atoms: _42  and  _43
REMARK   20  A    between atoms: _42  and  _45
REMARK   21  A    between atoms: _45  and  _46
REMARK   22  A    between atoms: _51  and  _52
REMARK   23  A    between atoms: _54  and  _56
REMARK   24  A    between atoms: _56  and  _57
REMARK   25  A    between atoms: _56  and  _59
REMARK   26  A    between atoms: _59  and  _60
REMARK   27  A    between atoms: _63  and  _65
REMARK   28  A    between atoms: _65  and  _66
REMARK   29  A    between atoms: _65  and  _68
REMARK   30  A    between atoms: _68  and  _69
REMARK   31  A    between atoms: _75  and  _77
REMARK   32  A    between atoms: _77  and  _78
REMARK   33  A    between atoms: _77  and  _80
REMARK   34  A    between atoms: _80  and  _81
REMARK   35  A    between atoms: _86  and  _88
REMARK   36  A    between atoms: _88  and  _89
REMARK   37  A    between atoms: _92  and  _94
REMARK   38  A    between atoms: _94  and  _95
REMARK   39  A    between atoms: _97  and  _99
REMARK   40  A    between atoms: _99  and  _100
REMARK   41  A    between atoms: _103  and  _105
REMARK   42  A    between atoms: _105  and  _106
REMARK   43  A    between atoms: _105  and  _108
REMARK   44  A    between atoms: _108  and  _109
REMARK   45  A    between atoms: _109  and  _110
REMARK   46  A    between atoms: _112  and  _114
REMARK   47  A    between atoms: _114  and  _115
REMARK   48  A    between atoms: _114  and  _117
REMARK   49  A    between atoms: _117  and  _118
REMARK   50  A    between atoms: _118  and  _119
REMARK   51  A    between atoms: _122  and  _124
REMARK   52  A    between atoms: _124  and  _125
REMARK   53  A    between atoms: _124  and  _127
REMARK   54  A    between atoms: _127  and  _128
REMARK   55  A    between atoms: _133  and  _135
REMARK   56  A    between atoms: _135  and  _136
REMARK   57  A    between atoms: _135  and  _138
REMARK   58  A    between atoms: _138  and  _139
REMARK   59  A    between atoms: _142  and  _144
REMARK   60  A    between atoms: _144  and  _145
REMARK   61  A    between atoms: _144  and  _147
REMARK   62  A    between atoms: _147  and  _148
REMARK   63  A    between atoms: _153  and  _154
REMARK   64  A    between atoms: _156  and  _158
REMARK   65  A    between atoms: _158  and  _159
REMARK   66  A    between atoms: _158  and  _161
REMARK   67  A    between atoms: _161  and  _162
REMARK   68  A    between atoms: _162  and  _163
REMARK   69  A    between atoms: _163  and  _164
REMARK   70  A    between atoms: _173  and  _175
REMARK   71  A    between atoms: _175  and  _176
REMARK   72  A    between atoms: _175  and  _178
REMARK   73  A    between atoms: _178  and  _179
REMARK   74  A    between atoms: _184  and  _186
REMARK   75  A    between atoms: _186  and  _187
REMARK   76  A    between atoms: _186  and  _189
REMARK   77  A    between atoms: _189  and  _190
REMARK   78  A    between atoms: _192  and  _194
REMARK   79  A    between atoms: _194  and  _195
REMARK   80  A    between atoms: _194  and  _197
REMARK   81  A    between atoms: _197  and  _198
REMARK   82  A    between atoms: _200  and  _202
REMARK   83  A    between atoms: _202  and  _203
REMARK   84  A    between atoms: _202  and  _205
REMARK   85  A    between atoms: _205  and  _206
REMARK   86  A    between atoms: _206  and  _207
REMARK   87  A    between atoms: _210  and  _212
REMARK   88  A    between atoms: _212  and  _213
REMARK   89  A    between atoms: _212  and  _215
REMARK   90  A    between atoms: _215  and  _216
REMARK   91  A    between atoms: _216  and  _217
REMARK   92  A    between atoms: _217  and  _218
REMARK   93  A    between atoms: _227  and  _229
REMARK   94  A    between atoms: _229  and  _230
REMARK   95  A    between atoms: _229  and  _232
REMARK   96  A    between atoms: _235  and  _237
REMARK   97  A    between atoms: _237  and  _238
REMARK   98  A    between atoms: _237  and  _240
REMARK   99  A    between atoms: _240  and  _241
REMARK  100  A    between atoms: _244  and  _246
REMARK  101  A    between atoms: _246  and  _247
REMARK  102  A    between atoms: _246  and  _249
REMARK  103  A    between atoms: _252  and  _254
REMARK  104  A    between atoms: _254  and  _255
REMARK  105  A    between atoms: _254  and  _257
REMARK  106  A    between atoms: _257  and  _258
REMARK  107  A    between atoms: _261  and  _263
REMARK  108  A    between atoms: _263  and  _264
REMARK  109  A    between atoms: _267  and  _269
REMARK  110  A    between atoms: _269  and  _270
REMARK  111  A    between atoms: _269  and  _272
REMARK  112  A    between atoms: _272  and  _273
REMARK  113  A    between atoms: _278  and  _280
REMARK  114  A    between atoms: _280  and  _281
REMARK  115  A    between atoms: _280  and  _283
REMARK  116  A    between atoms: _283  and  _284
REMARK  117  A    between atoms: _284  and  _285
REMARK  118  A    between atoms: _288  and  _290
REMARK  119  A    between atoms: _290  and  _291
REMARK  120  A    between atoms: _290  and  _293
REMARK  121  A    between atoms: _293  and  _294
REMARK  122  A    between atoms: _299  and  _301
REMARK  123  A    between atoms: _301  and  _302
REMARK  124  A    between atoms: _301  and  _304
REMARK  125  A    between atoms: _304  and  _305
REMARK  126  A    between atoms: _315  and  _317
REMARK  127  A    between atoms: _317  and  _318
REMARK  128  A    between atoms: _317  and  _320
REMARK  129  A    between atoms: _320  and  _321
REMARK  130  A    between atoms: _324  and  _326
REMARK  131  A    between atoms: _326  and  _327
REMARK  132  A    between atoms: _326  and  _329
REMARK  133  A    between atoms: _329  and  _330
REMARK  134  A    between atoms: _335  and  _337
REMARK  135  A    between atoms: _337  and  _338
REMARK  136  A    between atoms: _337  and  _340
REMARK  137  A    between atoms: _340  and  _341
REMARK  138  A    between atoms: _341  and  _342
REMARK  139  A    between atoms: _345  and  _347
REMARK  140  A    between atoms: _347  and  _348
REMARK  141  A    between atoms: _351  and  _353
REMARK  142  A    between atoms: _353  and  _354
REMARK  143  A    between atoms: _353  and  _356
REMARK  144  A    between atoms: _356  and  _357
REMARK  145  A    between atoms: _359  and  _361
REMARK  146  A    between atoms: _361  and  _362
REMARK  147  A    between atoms: _361  and  _364
REMARK  148  A    between atoms: _364  and  _365
REMARK  149  A    between atoms: _365  and  _366
REMARK  150  A    between atoms: _369  and  _371
REMARK  151  A    between atoms: _371  and  _372
REMARK  152  A    between atoms: _371  and  _374
REMARK  153  A    between atoms: _374  and  _375
REMARK  154  A    between atoms: _380  and  _381
REMARK  155  A    between atoms: _383  and  _385
REMARK  156  A    between atoms: _385  and  _386
REMARK  157  A    between atoms: _385  and  _388
REMARK  158  A    between atoms: _388  and  _389
REMARK  159  A    between atoms: _392  and  _394
REMARK  160  A    between atoms: _394  and  _395
REMARK  161  A    between atoms: _394  and  _397
REMARK  162  A    between atoms: _397  and  _398
REMARK  163  A    between atoms: _403  and  _405
REMARK  164  A    between atoms: _405  and  _406
REMARK  165  A    between atoms: _405  and  _408
REMARK  166  A    between atoms: _408  and  _409
REMARK  167  A    between atoms: _412  and  _414
REMARK  168  A    between atoms: _414  and  _415
REMARK  169  A    between atoms: _414  and  _417
REMARK  170  A    between atoms: _417  and  _418
REMARK  171  A    between atoms: _423  and  _424
REMARK  172  A    between atoms: _426  and  _428
REMARK  173  A    between atoms: _428  and  _429
REMARK  174  A    between atoms: _428  and  _431
REMARK  175  A    between atoms: _431  and  _432
REMARK  176  A    between atoms: _432  and  _433
REMARK  177  A    between atoms: _433  and  _434
REMARK  178  A    between atoms: _443  and  _445
REMARK  179  A    between atoms: _445  and  _446
REMARK  180  A    between atoms: _445  and  _448
REMARK  181  A    between atoms: _451  and  _453
REMARK  182  A    between atoms: _453  and  _454
REMARK  183  A    between atoms: _457  and  _459
REMARK  184  A    between atoms: _459  and  _460
REMARK  185  A    between atoms: _459  and  _462
REMARK  186  A    between atoms: _465  and  _467
REMARK  187  A    between atoms: _467  and  _468
REMARK  188  A    between atoms: _467  and  _470
REMARK  189  A    between atoms: _470  and  _471
REMARK  190  A    between atoms: _473  and  _475
REMARK  191  A    between atoms: _475  and  _476
REMARK  192  A    between atoms: _475  and  _478
REMARK  193  A    between atoms: _478  and  _479
REMARK  194  A    between atoms: _479  and  _480
REMARK  195  A    between atoms: _483  and  _485
REMARK  196  A    between atoms: _485  and  _486
REMARK  197  A    between atoms: _485  and  _488
REMARK  198  A    between atoms: _488  and  _489
REMARK  199  A    between atoms: _492  and  _494
REMARK  200  A    between atoms: _494  and  _495
REMARK  201  A    between atoms: _494  and  _497
REMARK  202  A    between atoms: _497  and  _498
REMARK  203  A    between atoms: _504  and  _506
REMARK  204  A    between atoms: _506  and  _507
REMARK  205  A    between atoms: _506  and  _509
REMARK  206  A    between atoms: _509  and  _510
REMARK  207  A    between atoms: _513  and  _515
REMARK  208  A    between atoms: _515  and  _516
REMARK  209  A    between atoms: _519  and  _521
REMARK  210  A    between atoms: _521  and  _522
REMARK  211  A    between atoms: _521  and  _524
REMARK  212  A    between atoms: _524  and  _525
REMARK  213  A    between atoms: _530  and  _531
REMARK  214  A    between atoms: _533  and  _535
REMARK  215  A    between atoms: _535  and  _536
REMARK  216  A    between atoms: _535  and  _538
REMARK  217  A    between atoms: _538  and  _539
REMARK  218  A    between atoms: _541  and  _543
REMARK  219  A    between atoms: _543  and  _544
REMARK  220  A    between atoms: _543  and  _546
REMARK  221  A    between atoms: _546  and  _547
REMARK  222  A    between atoms: _550  and  _552
REMARK  223  A    between atoms: _552  and  _553
REMARK  224  A    between atoms: _552  and  _555
REMARK  225  A    between atoms: _555  and  _556
REMARK  226  A    between atoms: _558  and  _560
REMARK  227  A    between atoms: _560  and  _561
REMARK  228  A    between atoms: _560  and  _563
REMARK  229  A    between atoms: _563  and  _564
REMARK  230  A    between atoms: _567  and  _569
REMARK  231  A    between atoms: _569  and  _570
REMARK  232  A    between atoms: _569  and  _572
REMARK  233  A    between atoms: _572  and  _573
REMARK  234  A    between atoms: _575  and  _577
REMARK  235  A    between atoms: _577  and  _578
REMARK  236  A    between atoms: _577  and  _580
REMARK  237  A    between atoms: _580  and  _581
REMARK  238  A    between atoms: _584  and  _586
REMARK  239  A    between atoms: _586  and  _587
REMARK  240  A    between atoms: _586  and  _589
REMARK  241  A    between atoms: _589  and  _590
REMARK  242  A    between atoms: _595  and  _597
REMARK  243  A    between atoms: _597  and  _598
REMARK  244  A    between atoms: _597  and  _600
REMARK  245  A    between atoms: _600  and  _601
REMARK  246  A    between atoms: _603  and  _605
REMARK  247  A    between atoms: _605  and  _606
REMARK  248  A    between atoms: _605  and  _608
REMARK  249  A    between atoms: _608  and  _609
REMARK  250  A    between atoms: _615  and  _617
REMARK  251  A    between atoms: _617  and  _618
REMARK  252  A    between atoms: _617  and  _620
REMARK  253  A    between atoms: _620  and  _621
REMARK  254  A    between atoms: _623  and  _625
REMARK  255  A    between atoms: _625  and  _626
REMARK  256  A    between atoms: _625  and  _628
REMARK  257  A    between atoms: _628  and  _629
REMARK  258  A    between atoms: _635  and  _637
REMARK  259  A    between atoms: _637  and  _638
REMARK  260  A    between atoms: _637  and  _640
REMARK  261  A    between atoms: _640  and  _641
REMARK  262  A    between atoms: _643  and  _645
REMARK  263  A    between atoms: _645  and  _646
REMARK  264  A    between atoms: _645  and  _648
REMARK  265  A    between atoms: _648  and  _649
REMARK  266  A    between atoms: _654  and  _656
REMARK  267  A    between atoms: _656  and  _657
REMARK  268  A    between atoms: _656  and  _659
REMARK  269  A    between atoms: _659  and  _660
REMARK  270  A    between atoms: _663  and  _665
REMARK  271  A    between atoms: _665  and  _666
REMARK  272  A    between atoms: _665  and  _668
REMARK  273  A    between atoms: _668  and  _669
REMARK  274  A    between atoms: _672  and  _674
REMARK  275  A    between atoms: _674  and  _675
REMARK  276  A    between atoms: _674  and  _677
REMARK  277  A    between atoms: _677  and  _678
REMARK  278  A    between atoms: _678  and  _679
REMARK  279  A    between atoms: _684  and  _686
REMARK  280  A    between atoms: _686  and  _687
REMARK  281  A    between atoms: _690  and  _692
REMARK  282  A    between atoms: _692  and  _693
REMARK  283  A    between atoms: _692  and  _695
REMARK  284  A    between atoms: _698  and  _700
REMARK  285  A    between atoms: _700  and  _701
REMARK  286  A    between atoms: _700  and  _703
REMARK  287  A    between atoms: _703  and  _704
REMARK  288  A    between atoms: _707  and  _709
REMARK  289  A    between atoms: _709  and  _710
REMARK  290  A    between atoms: _709  and  _712
REMARK  291  A    between atoms: _712  and  _713
REMARK  292  A    between atoms: _713  and  _714
REMARK  293  A    between atoms: _714  and  _715
REMARK  294  A    between atoms: _724  and  _726
REMARK  295  A    between atoms: _726  and  _727
REMARK  296  A    between atoms: _726  and  _729
REMARK  297  A    between atoms: _729  and  _730
REMARK  298  A    between atoms: _730  and  _731
REMARK  299  A    between atoms: _731  and  _732
REMARK  300  A    between atoms: _732  and  _733
REMARK                            x       y       z     vdW  Elec       q    Type
REMARK                         _______ _______ _______ _____ _____    ______ ____
ROOT
ATOM      1  C   LEU A   3     101.932  21.081  27.989  0.00  0.00    +0.241 C 
ATOM      2  O   LEU A   3     101.787  22.177  27.441  0.00  0.00    -0.273 OA
ATOM      3  N   PHE A   4     102.512  20.050  27.369  0.00  0.00    -0.297 N 
ATOM      4  H   PHE A   4     102.743  19.187  27.902  0.00  0.00    +0.150 HD
ENDROOT
BRANCH   1   5
ATOM      5  CA  LEU A   3     101.468  20.891  29.421  0.00  0.00    +0.149 C 
BRANCH   5   7
ATOM      6  C   GLU A   2     100.461  18.652  29.375  0.00  0.00    +0.241 C 
ATOM      7  N   LEU A   3     101.371  19.486  29.881  0.00  0.00    -0.297 N 
ATOM      8  H   LEU A   3     102.025  19.143  30.613  0.00  0.00    +0.150 HD
ATOM      9  O   GLU A   2      99.664  18.991  28.466  0.00  0.00    -0.273 OA
BRANCH   6  10
ATOM     10  CA  GLU A   2     100.503  17.214  29.900  0.00  0.00    +0.149 C 
BRANCH  10  12
ATOM     11  C   SER A   1     102.828  16.717  29.281  0.00  0.00    +0.241 C 
ATOM     12  N   GLU A   2     101.864  16.756  30.188  0.00  0.00    -0.297 N 
ATOM     13  H   GLU A   2     102.085  16.445  31.156  0.00  0.00    +0.150 HD
ATOM     14  O   SER A   1     102.682  17.086  28.131  0.00  0.00    -0.274 OA
BRANCH  11  15
ATOM     15  CA  SER A   1     104.170  16.212  29.770  0.00  0.00    +0.174 C 
BRANCH  15  16
ATOM     16  N   SER A   1     104.467  16.665  31.135  0.00  0.00    -0.236 NA
ATOM     17  H   SER A   1     104.640  15.959  31.878  0.00  0.00    +0.142 HD
ENDBRANCH  15  16
BRANCH  15  18
ATOM     18  CB  SER A   1     104.221  14.687  29.696  0.00  0.00    +0.163 C 
BRANCH  18  19
ATOM     19  OG  SER A   1     105.557  14.293  29.920  0.00  0.00    -0.380 OA
ATOM     20  H   SER A   1     105.847  14.605  30.814  0.00  0.00    +0.211 HD
ENDBRANCH  18  19
ENDBRANCH  15  18
ENDBRANCH  11  15
ENDBRANCH  10  12
BRANCH  10  21
ATOM     21  CB  GLU A   2      99.695  17.060  31.184  0.00  0.00    +0.041 C 
BRANCH  21  22
ATOM     22  CG  GLU A   2      98.244  17.412  31.099  0.00  0.00    +0.116 C 
BRANCH  22  23
ATOM     23  CD  GLU A   2      97.503  16.904  32.341  0.00  0.00    +0.365 C 
ATOM     24  OE2 GLU A   2      97.876  17.267  33.505  0.00  0.00    -0.246 OA
ATOM     25  OE1 GLU A   2      96.567  16.124  32.116  0.00  0.00    -0.246 OA
ENDBRANCH  22  23
ENDBRANCH  21  22
ENDBRANCH  10  21
ENDBRANCH   6  10
ENDBRANCH   5   7
BRANCH   5  26
ATOM     26  CB  LEU A   3     102.373  21.707  30.348  0.00  0.00    +0.029 C 
BRANCH  26  27
ATOM     27  CG  LEU A   3     101.841  22.006  31.741  0.00  0.00    +0.002 C 
ATOM     28  CD2 LEU A   3     102.867  22.816  32.512  0.00  0.00    +0.000 C 
ATOM     29  CD1 LEU A   3     100.506  22.748  31.733  0.00  0.00    +0.000 C 
ENDBRANCH  26  27
ENDBRANCH   5  26
ENDBRANCH   1   5
BRANCH   3  30
ATOM     30  CA  PHE A   4     102.823  20.132  25.941  0.00  0.00    +0.153 C 
BRANCH  30  31
ATOM     31  C   PHE A   4     101.522  19.972  25.135  0.00  0.00    +0.241 C 
ATOM     32  N   ASP A   5     100.745  21.051  25.077  0.00  0.00    -0.297 N 
ATOM     33  H   ASP A   5     101.139  21.983  25.316  0.00  0.00    +0.150 HD
ATOM     34  O   PHE A   4     101.225  18.894  24.600  0.00  0.00    -0.273 OA
BRANCH  32  35
ATOM     35  CA  ASP A   5      99.343  20.937  24.680  0.00  0.00    +0.160 C 
BRANCH  35  36
ATOM     36  C   ASP A   5      98.966  22.146  23.852  0.00  0.00    +0.241 C 
ATOM     37  O   ASP A   5      99.844  22.989  23.560  0.00  0.00    -0.273 OA
ATOM     38  N   ALA A   6      97.683  22.247  23.460  0.00  0.00    -0.298 N 
ATOM     39  H   ALA A   6      96.975  21.575  23.818  0.00  0.00    +0.150 HD
BRANCH  38  40
ATOM     40  CA  ALA A   6      97.285  23.300  22.532  0.00  0.00    +0.137 C 
ATOM     41  CB  ALA A   6      95.841  23.098  22.058  0.00  0.00    +0.030 C 
BRANCH  40  42
ATOM     42  C   ALA A   6      97.457  24.675  23.173  0.00  0.00    +0.227 C 
ATOM     43  O   ALA A   6      97.715  25.645  22.462  0.00  0.00    -0.286 OA
ENDBRANCH  40  42
ENDBRANCH  38  40
ENDBRANCH  35  36
BRANCH  35  44
ATOM     44  CB  ASP A   5      98.475  20.796  25.925  0.00  0.00    +0.143 C 
BRANCH  44  45
ATOM     45  CG  ASP A   5      98.424  22.090  26.789  0.00  0.00    +0.367 C 
ATOM     46  OD2 ASP A   5      97.767  22.047  27.833  0.00  0.00    -0.246 OA
ATOM     47  OD1 ASP A   5      98.977  23.160  26.439  0.00  0.00    -0.246 OA
ENDBRANCH  44  45
ENDBRANCH  35  44
ENDBRANCH  32  35
ENDBRANCH  30  31
BRANCH  30  48
ATOM     48  CB  PHE A   4     103.846  19.066  25.544  0.00  0.00    +0.055 C 
BRANCH  48  49
ATOM     49  CG  PHE A   4     105.222  19.329  26.123  0.00  0.00    -0.020 A 
ATOM     50  CD2 PHE A   4     105.461  19.115  27.480  0.00  0.00    -0.004 A 
ATOM     51  CE2 PHE A   4     106.718  19.394  28.043  0.00  0.00    -0.000 A 
ATOM     52  CZ  PHE A   4     107.749  19.866  27.235  0.00  0.00    -0.000 A 
ATOM     53  CE1 PHE A   4     107.522  20.114  25.884  0.00  0.00    -0.000 A 
ATOM     54  CD1 PHE A   4     106.248  19.855  25.329  0.00  0.00    -0.004 A 
ENDBRANCH  48  49
ENDBRANCH  30  48
ENDBRANCH   3  30
TORSDOF 23
REMARK  Name = ../refined-set-2016/4fys/4fys_pocket.pdb
REMARK  300 active torsions:
REMARK  status: ('A' for Active; 'I' for Inactive)
REMARK    1  A    between atoms: _1  and  _3
REMARK    2  A    between atoms: _3  and  _4
REMARK    3  A    between atoms: _3  and  _6
REMARK    4  A    between atoms: _6  and  _7
REMARK    5  A    between atoms: _7  and  _8
REMARK    6  A    between atoms: _13  and  _15
REMARK    7  A    between atoms: _15  and  _16
REMARK    8  A    between atoms: _15  and  _18
REMARK    9  A    between atoms: _18  and  _19
REMARK   10  A    between atoms: _19  and  _20
REMARK   11  A    between atoms: _22  and  _24
REMARK   12  A    between atoms: _24  and  _25
REMARK   13  A    between atoms: _24  and  _27
REMARK   14  A    between atoms: _27  and  _28
REMARK   15  A    between atoms: _28  and  _29
REMARK   16  A    between atoms: _34  and  _36
REMARK   17  A    between atoms: _36  and  _37
REMARK   18  A    between atoms: _40  and  _42
REMARK   19  A    between atoms: _42  and  _43
REMARK   20  A    between atoms: _42  and  _45
REMARK   21  A    between atoms: _45  and  _46
REMARK   22  A    between atoms: _51  and  _52
REMARK   23  A    between atoms: _54  and  _56
REMARK   24  A    between atoms: _56  and  _57
REMARK   25  A    between atoms: _56  and  _59
REMARK   26  A    between atoms: _59  and  _60
REMARK   27  A    between atoms: _63  and  _65
REMARK   28  A    between atoms: _65  and  _66
REMARK   29  A    between atoms: _65  and  _68
REMARK   30  A    between atoms: _68  and  _69
REMARK   31  A    between atoms: _75  and  _77
REMARK   32  A    between atoms: _77  and  _78
REMARK   33  A    between atoms: _77  and  _80
REMARK   34  A    between atoms: _80  and  _81
REMARK   35  A    between atoms: _86  and  _88
REMARK   36  A    between atoms: _88  and  _89
REMARK   37  A    between atoms: _92  and  _94
REMARK   38  A    between atoms: _94  and  _95
REMARK   39  A    between atoms: _97  and  _99
REMARK   40  A    between atoms: _99  and  _100
REMARK   41  A    between atoms: _103  and  _105
REMARK   42  A    between atoms: _105  and  _106
REMARK   43  A    between atoms: _105  and  _108
REMARK   44  A    between atoms: _108  and  _109
REMARK   45  A    between atoms: _109  and  _110
REMARK   46  A    between atoms: _112  and  _114
REMARK   47  A    between atoms: _114  and  _115
REMARK   48  A    between atoms: _114  and  _117
REMARK   49  A    between atoms: _117  and  _118
REMARK   50  A    between atoms: _118  and  _119
REMARK   51  A    between atoms: _122  and  _124
REMARK   52  A    between atoms: _124  and  _125
REMARK   53  A    between atoms: _124  and  _127
REMARK   54  A    between atoms: _127  and  _128
REMARK   55  A    between atoms: _133  and  _135
REMARK   56  A    between atoms: _135  and  _136
REMARK   57  A    between atoms: _135  and  _138
REMARK   58  A    between atoms: _138  and  _139
REMARK   59  A    between atoms: _142  and  _144
REMARK   60  A    between atoms: _144  and  _145
REMARK   61  A    between atoms: _144  and  _147
REMARK   62  A    between atoms: _147  and  _148
REMARK   63  A    between atoms: _153  and  _154
REMARK   64  A    between atoms: _156  and  _158
REMARK   65  A    between atoms: _158  and  _159
REMARK   66  A    between atoms: _158  and  _161
REMARK   67  A    between atoms: _161  and  _162
REMARK   68  A    between atoms: _162  and  _163
REMARK   69  A    between atoms: _163  and  _164
REMARK   70  A    between atoms: _173  and  _175
REMARK   71  A    between atoms: _175  and  _176
REMARK   72  A    between atoms: _175  and  _178
REMARK   73  A    between atoms: _178  and  _179
REMARK   74  A    between atoms: _184  and  _186
REMARK   75  A    between atoms: _186  and  _187
REMARK   76  A    between atoms: _186  and  _189
REMARK   77  A    between atoms: _189  and  _190
REMARK   78  A    between atoms: _192  and  _194
REMARK   79  A    between atoms: _194  and  _195
REMARK   80  A    between atoms: _194  and  _197
REMARK   81  A    between atoms: _197  and  _198
REMARK   82  A    between atoms: _200  and  _202
REMARK   83  A    between atoms: _202  and  _203
REMARK   84  A    between atoms: _202  and  _205
REMARK   85  A    between atoms: _205  and  _206
REMARK   86  A    between atoms: _206  and  _207
REMARK   87  A    between atoms: _210  and  _212
REMARK   88  A    between atoms: _212  and  _213
REMARK   89  A    between atoms: _212  and  _215
REMARK   90  A    between atoms: _215  and  _216
REMARK   91  A    between atoms: _216  and  _217
REMARK   92  A    between atoms: _217  and  _218
REMARK   93  A    between atoms: _227  and  _229
REMARK   94  A    between atoms: _229  and  _230
REMARK   95  A    between atoms: _229  and  _232
REMARK   96  A    between atoms: _235  and  _237
REMARK   97  A    between atoms: _237  and  _238
REMARK   98  A    between atoms: _237  and  _240
REMARK   99  A    between atoms: _240  and  _241
REMARK  100  A    between atoms: _244  and  _246
REMARK  101  A    between atoms: _246  and  _247
REMARK  102  A    between atoms: _246  and  _249
REMARK  103  A    between atoms: _252  and  _254
REMARK  104  A    between atoms: _254  and  _255
REMARK  105  A    between atoms: _254  and  _257
REMARK  106  A    between atoms: _257  and  _258
REMARK  107  A    between atoms: _261  and  _263
REMARK  108  A    between atoms: _263  and  _264
REMARK  109  A    between atoms: _267  and  _269
REMARK  110  A    between atoms: _269  and  _270
REMARK  111  A    between atoms: _269  and  _272
REMARK  112  A    between atoms: _272  and  _273
REMARK  113  A    between atoms: _278  and  _280
REMARK  114  A    between atoms: _280  and  _281
REMARK  115  A    between atoms: _280  and  _283
REMARK  116  A    between atoms: _283  and  _284
REMARK  117  A    between atoms: _284  and  _285
REMARK  118  A    between atoms: _288  and  _290
REMARK  119  A    between atoms: _290  and  _291
REMARK  120  A    between atoms: _290  and  _293
REMARK  121  A    between atoms: _293  and  _294
REMARK  122  A    between atoms: _299  and  _301
REMARK  123  A    between atoms: _301  and  _302
REMARK  124  A    between atoms: _301  and  _304
REMARK  125  A    between atoms: _304  and  _305
REMARK  126  A    between atoms: _315  and  _317
REMARK  127  A    between atoms: _317  and  _318
REMARK  128  A    between atoms: _317  and  _320
REMARK  129  A    between atoms: _320  and  _321
REMARK  130  A    between atoms: _324  and  _326
REMARK  131  A    between atoms: _326  and  _327
REMARK  132  A    between atoms: _326  and  _329
REMARK  133  A    between atoms: _329  and  _330
REMARK  134  A    between atoms: _335  and  _337
REMARK  135  A    between atoms: _337  and  _338
REMARK  136  A    between atoms: _337  and  _340
REMARK  137  A    between atoms: _340  and  _341
REMARK  138  A    between atoms: _341  and  _342
REMARK  139  A    between atoms: _345  and  _347
REMARK  140  A    between atoms: _347  and  _348
REMARK  141  A    between atoms: _351  and  _353
REMARK  142  A    between atoms: _353  and  _354
REMARK  143  A    between atoms: _353  and  _356
REMARK  144  A    between atoms: _356  and  _357
REMARK  145  A    between atoms: _359  and  _361
REMARK  146  A    between atoms: _361  and  _362
REMARK  147  A    between atoms: _361  and  _364
REMARK  148  A    between atoms: _364  and  _365
REMARK  149  A    between atoms: _365  and  _366
REMARK  150  A    between atoms: _369  and  _371
REMARK  151  A    between atoms: _371  and  _372
REMARK  152  A    between atoms: _371  and  _374
REMARK  153  A    between atoms: _374  and  _375
REMARK  154  A    between atoms: _380  and  _381
REMARK  155  A    between atoms: _383  and  _385
REMARK  156  A    between atoms: _385  and  _386
REMARK  157  A    between atoms: _385  and  _388
REMARK  158  A    between atoms: _388  and  _389
REMARK  159  A    between atoms: _392  and  _394
REMARK  160  A    between atoms: _394  and  _395
REMARK  161  A    between atoms: _394  and  _397
REMARK  162  A    between atoms: _397  and  _398
REMARK  163  A    between atoms: _403  and  _405
REMARK  164  A    between atoms: _405  and  _406
REMARK  165  A    between atoms: _405  and  _408
REMARK  166  A    between atoms: _408  and  _409
REMARK  167  A    between atoms: _412  and  _414
REMARK  168  A    between atoms: _414  and  _415
REMARK  169  A    between atoms: _414  and  _417
REMARK  170  A    between atoms: _417  and  _418
REMARK  171  A    between atoms: _423  and  _424
REMARK  172  A    between atoms: _426  and  _428
REMARK  173  A    between atoms: _428  and  _429
REMARK  174  A    between atoms: _428  and  _431
REMARK  175  A    between atoms: _431  and  _432
REMARK  176  A    between atoms: _432  and  _433
REMARK  177  A    between atoms: _433  and  _434
REMARK  178  A    between atoms: _443  and  _445
REMARK  179  A    between atoms: _445  and  _446
REMARK  180  A    between atoms: _445  and  _448
REMARK  181  A    between atoms: _451  and  _453
REMARK  182  A    between atoms: _453  and  _454
REMARK  183  A    between atoms: _457  and  _459
REMARK  184  A    between atoms: _459  and  _460
REMARK  185  A    between atoms: _459  and  _462
REMARK  186  A    between atoms: _465  and  _467
REMARK  187  A    between atoms: _467  and  _468
REMARK  188  A    between atoms: _467  and  _470
REMARK  189  A    between atoms: _470  and  _471
REMARK  190  A    between atoms: _473  and  _475
REMARK  191  A    between atoms: _475  and  _476
REMARK  192  A    between atoms: _475  and  _478
REMARK  193  A    between atoms: _478  and  _479
REMARK  194  A    between atoms: _479  and  _480
REMARK  195  A    between atoms: _483  and  _485
REMARK  196  A    between atoms: _485  and  _486
REMARK  197  A    between atoms: _485  and  _488
REMARK  198  A    between atoms: _488  and  _489
REMARK  199  A    between atoms: _492  and  _494
REMARK  200  A    between atoms: _494  and  _495
REMARK  201  A    between atoms: _494  and  _497
REMARK  202  A    between atoms: _497  and  _498
REMARK  203  A    between atoms: _504  and  _506
REMARK  204  A    between atoms: _506  and  _507
REMARK  205  A    between atoms: _506  and  _509
REMARK  206  A    between atoms: _509  and  _510
REMARK  207  A    between atoms: _513  and  _515
REMARK  208  A    between atoms: _515  and  _516
REMARK  209  A    between atoms: _519  and  _521
REMARK  210  A    between atoms: _521  and  _522
REMARK  211  A    between atoms: _521  and  _524
REMARK  212  A    between atoms: _524  and  _525
REMARK  213  A    between atoms: _530  and  _531
REMARK  214  A    between atoms: _533  and  _535
REMARK  215  A    between atoms: _535  and  _536
REMARK  216  A    between atoms: _535  and  _538
REMARK  217  A    between atoms: _538  and  _539
REMARK  218  A    between atoms: _541  and  _543
REMARK  219  A    between atoms: _543  and  _544
REMARK  220  A    between atoms: _543  and  _546
REMARK  221  A    between atoms: _546  and  _547
REMARK  222  A    between atoms: _550  and  _552
REMARK  223  A    between atoms: _552  and  _553
REMARK  224  A    between atoms: _552  and  _555
REMARK  225  A    between atoms: _555  and  _556
REMARK  226  A    between atoms: _558  and  _560
REMARK  227  A    between atoms: _560  and  _561
REMARK  228  A    between atoms: _560  and  _563
REMARK  229  A    between atoms: _563  and  _564
REMARK  230  A    between atoms: _567  and  _569
REMARK  231  A    between atoms: _569  and  _570
REMARK  232  A    between atoms: _569  and  _572
REMARK  233  A    between atoms: _572  and  _573
REMARK  234  A    between atoms: _575  and  _577
REMARK  235  A    between atoms: _577  and  _578
REMARK  236  A    between atoms: _577  and  _580
REMARK  237  A    between atoms: _580  and  _581
REMARK  238  A    between atoms: _584  and  _586
REMARK  239  A    between atoms: _586  and  _587
REMARK  240  A    between atoms: _586  and  _589
REMARK  241  A    between atoms: _589  and  _590
REMARK  242  A    between atoms: _595  and  _597
REMARK  243  A    between atoms: _597  and  _598
REMARK  244  A    between atoms: _597  and  _600
REMARK  245  A    between atoms: _600  and  _601
REMARK  246  A    between atoms: _603  and  _605
REMARK  247  A    between atoms: _605  and  _606
REMARK  248  A    between atoms: _605  and  _608
REMARK  249  A    between atoms: _608  and  _609
REMARK  250  A    between atoms: _615  and  _617
REMARK  251  A    between atoms: _617  and  _618
REMARK  252  A    between atoms: _617  and  _620
REMARK  253  A    between atoms: _620  and  _621
REMARK  254  A    between atoms: _623  and  _625
REMARK  255  A    between atoms: _625  and  _626
REMARK  256  A    between atoms: _625  and  _628
REMARK  257  A    between atoms: _628  and  _629
REMARK  258  A    between atoms: _635  and  _637
REMARK  259  A    between atoms: _637  and  _638
REMARK  260  A    between atoms: _637  and  _640
REMARK  261  A    between atoms: _640  and  _641
REMARK  262  A    between atoms: _643  and  _645
REMARK  263  A    between atoms: _645  and  _646
REMARK  264  A    between atoms: _645  and  _648
REMARK  265  A    between atoms: _648  and  _649
REMARK  266  A    between atoms: _654  and  _656
REMARK  267  A    between atoms: _656  and  _657
REMARK  268  A    between atoms: _656  and  _659
REMARK  269  A    between atoms: _659  and  _660
REMARK  270  A    between atoms: _663  and  _665
REMARK  271  A    between atoms: _665  and  _666
REMARK  272  A    between atoms: _665  and  _668
REMARK  273  A    between atoms: _668  and  _669
REMARK  274  A    between atoms: _672  and  _674
REMARK  275  A    between atoms: _674  and  _675
REMARK  276  A    between atoms: _674  and  _677
REMARK  277  A    between atoms: _677  and  _678
REMARK  278  A    between atoms: _678  and  _679
REMARK  279  A    between atoms: _684  and  _686
REMARK  280  A    between atoms: _686  and  _687
REMARK  281  A    between atoms: _690  and  _692
REMARK  282  A    between atoms: _692  and  _693
REMARK  283  A    between atoms: _692  and  _695
REMARK  284  A    between atoms: _698  and  _700
REMARK  285  A    between atoms: _700  and  _701
REMARK  286  A    between atoms: _700  and  _703
REMARK  287  A    between atoms: _703  and  _704
REMARK  288  A    between atoms: _707  and  _709
REMARK  289  A    between atoms: _709  and  _710
REMARK  290  A    between atoms: _709  and  _712
REMARK  291  A    between atoms: _712  and  _713
REMARK  292  A    between atoms: _713  and  _714
REMARK  293  A    between atoms: _714  and  _715
REMARK  294  A    between atoms: _724  and  _726
REMARK  295  A    between atoms: _726  and  _727
REMARK  296  A    between atoms: _726  and  _729
REMARK  297  A    between atoms: _729  and  _730
REMARK  298  A    between atoms: _730  and  _731
REMARK  299  A    between atoms: _731  and  _732
REMARK  300  A    between atoms: _732  and  _733
REMARK                            x       y       z     vdW  Elec       q    Type
REMARK                         _______ _______ _______ _____ _____    ______ ____
ROOT
ATOM      1  CA  TYR A   1     101.772  25.803  21.676  0.00  0.00    +0.149 C 
ENDROOT
BRANCH   1   2
ATOM      2  C   TYR A   1     100.924  26.863  20.967  0.00  0.00    +0.239 C 
ATOM      3  N   SER A   2      99.645  26.580  20.749  0.00  0.00    -0.296 N 
ATOM      4  H   SER A   2      99.201  25.769  21.226  0.00  0.00    +0.150 HD
ATOM      5  O   TYR A   1     101.445  27.874  20.534  0.00  0.00    -0.274 OA
BRANCH   3   6
ATOM      6  CA  SER A   2      98.858  27.417  19.831  0.00  0.00    +0.166 C 
BRANCH   6   7
ATOM      7  CB  SER A   2      98.321  28.677  20.525  0.00  0.00    +0.229 C 
ATOM      8  OG  SER A   2      98.217  29.744  19.893  0.00  0.00    -0.286 OA
ENDBRANCH   6   7
BRANCH   6   9
ATOM      9  C   SER A   2      97.703  26.611  19.221  0.00  0.00    +0.165 C 
BRANCH   9  10
ATOM     10  O   SER A   2      98.220  25.607  18.356  0.00  0.00    -0.380 OA
ATOM     11  H   SER A   2      98.741  26.034  17.630  0.00  0.00    +0.211 HD
ENDBRANCH   9  10
ENDBRANCH   6   9
ENDBRANCH   3   6
ENDBRANCH   1   2
BRANCH   1  12
ATOM     12  N   TYR A   1     101.321  25.636  23.047  0.00  0.00    -0.238 NA
ATOM     13  H   TYR A   1     100.630  24.892  23.273  0.00  0.00    +0.142 HD
ENDBRANCH   1  12
BRANCH   1  14
ATOM     14  CB  TYR A   1     101.729  24.467  20.852  0.00  0.00    +0.053 C 
BRANCH  14  15
ATOM     15  CG  TYR A   1     102.872  23.514  21.169  0.00  0.00    -0.020 A 
ATOM     16  CD2 TYR A   1     102.917  22.853  22.378  0.00  0.00    -0.001 A 
ATOM     17  CE2 TYR A   1     103.952  21.958  22.689  0.00  0.00    +0.036 A 
ATOM     18  CZ  TYR A   1     104.947  21.750  21.757  0.00  0.00    +0.134 A 
ATOM     19  CE1 TYR A   1     104.938  22.395  20.534  0.00  0.00    +0.036 A 
ATOM     20  CD1 TYR A   1     103.890  23.264  20.226  0.00  0.00    -0.001 A 
BRANCH  18  21
ATOM     21  OH  TYR A   1     105.960  20.904  22.083  0.00  0.00    -0.506 OA
ATOM     22  HH  TYR A   1     106.818  21.398  22.071  0.00  0.00    +0.292 HD
ENDBRANCH  18  21
ENDBRANCH  14  15
ENDBRANCH   1  14
TORSDOF 9
REMARK  Name = ../refined-set-2016/4fys/4fys_pocket.pdb
REMARK  300 active torsions:
REMARK  status: ('A' for Active; 'I' for Inactive)
REMARK    1  A    between atoms: _1  and  _3
REMARK    2  A    between atoms: _3  and  _4
REMARK    3  A    between atoms: _3  and  _6
REMARK    4  A    between atoms: _6  and  _7
REMARK    5  A    between atoms: _7  and  _8
REMARK    6  A    between atoms: _13  and  _15
REMARK    7  A    between atoms: _15  and  _16
REMARK    8  A    between atoms: _15  and  _18
REMARK    9  A    between atoms: _18  and  _19
REMARK   10  A    between atoms: _19  and  _20
REMARK   11  A    between atoms: _22  and  _24
REMARK   12  A    between atoms: _24  and  _25
REMARK   13  A    between atoms: _24  and  _27
REMARK   14  A    between atoms: _27  and  _28
REMARK   15  A    between atoms: _28  and  _29
REMARK   16  A    between atoms: _34  and  _36
REMARK   17  A    between atoms: _36  and  _37
REMARK   18  A    between atoms: _40  and  _42
REMARK   19  A    between atoms: _42  and  _43
REMARK   20  A    between atoms: _42  and  _45
REMARK   21  A    between atoms: _45  and  _46
REMARK   22  A    between atoms: _51  and  _52
REMARK   23  A    between atoms: _54  and  _56
REMARK   24  A    between atoms: _56  and  _57
REMARK   25  A    between atoms: _56  and  _59
REMARK   26  A    between atoms: _59  and  _60
REMARK   27  A    between atoms: _63  and  _65
REMARK   28  A    between atoms: _65  and  _66
REMARK   29  A    between atoms: _65  and  _68
REMARK   30  A    between atoms: _68  and  _69
REMARK   31  A    between atoms: _75  and  _77
REMARK   32  A    between atoms: _77  and  _78
REMARK   33  A    between atoms: _77  and  _80
REMARK   34  A    between atoms: _80  and  _81
REMARK   35  A    between atoms: _86  and  _88
REMARK   36  A    between atoms: _88  and  _89
REMARK   37  A    between atoms: _92  and  _94
REMARK   38  A    between atoms: _94  and  _95
REMARK   39  A    between atoms: _97  and  _99
REMARK   40  A    between atoms: _99  and  _100
REMARK   41  A    between atoms: _103  and  _105
REMARK   42  A    between atoms: _105  and  _106
REMARK   43  A    between atoms: _105  and  _108
REMARK   44  A    between atoms: _108  and  _109
REMARK   45  A    between atoms: _109  and  _110
REMARK   46  A    between atoms: _112  and  _114
REMARK   47  A    between atoms: _114  and  _115
REMARK   48  A    between atoms: _114  and  _117
REMARK   49  A    between atoms: _117  and  _118
REMARK   50  A    between atoms: _118  and  _119
REMARK   51  A    between atoms: _122  and  _124
REMARK   52  A    between atoms: _124  and  _125
REMARK   53  A    between atoms: _124  and  _127
REMARK   54  A    between atoms: _127  and  _128
REMARK   55  A    between atoms: _133  and  _135
REMARK   56  A    between atoms: _135  and  _136
REMARK   57  A    between atoms: _135  and  _138
REMARK   58  A    between atoms: _138  and  _139
REMARK   59  A    between atoms: _142  and  _144
REMARK   60  A    between atoms: _144  and  _145
REMARK   61  A    between atoms: _144  and  _147
REMARK   62  A    between atoms: _147  and  _148
REMARK   63  A    between atoms: _153  and  _154
REMARK   64  A    between atoms: _156  and  _158
REMARK   65  A    between atoms: _158  and  _159
REMARK   66  A    between atoms: _158  and  _161
REMARK   67  A    between atoms: _161  and  _162
REMARK   68  A    between atoms: _162  and  _163
REMARK   69  A    between atoms: _163  and  _164
REMARK   70  A    between atoms: _173  and  _175
REMARK   71  A    between atoms: _175  and  _176
REMARK   72  A    between atoms: _175  and  _178
REMARK   73  A    between atoms: _178  and  _179
REMARK   74  A    between atoms: _184  and  _186
REMARK   75  A    between atoms: _186  and  _187
REMARK   76  A    between atoms: _186  and  _189
REMARK   77  A    between atoms: _189  and  _190
REMARK   78  A    between atoms: _192  and  _194
REMARK   79  A    between atoms: _194  and  _195
REMARK   80  A    between atoms: _194  and  _197
REMARK   81  A    between atoms: _197  and  _198
REMARK   82  A    between atoms: _200  and  _202
REMARK   83  A    between atoms: _202  and  _203
REMARK   84  A    between atoms: _202  and  _205
REMARK   85  A    between atoms: _205  and  _206
REMARK   86  A    between atoms: _206  and  _207
REMARK   87  A    between atoms: _210  and  _212
REMARK   88  A    between atoms: _212  and  _213
REMARK   89  A    between atoms: _212  and  _215
REMARK   90  A    between atoms: _215  and  _216
REMARK   91  A    between atoms: _216  and  _217
REMARK   92  A    between atoms: _217  and  _218
REMARK   93  A    between atoms: _227  and  _229
REMARK   94  A    between atoms: _229  and  _230
REMARK   95  A    between atoms: _229  and  _232
REMARK   96  A    between atoms: _235  and  _237
REMARK   97  A    between atoms: _237  and  _238
REMARK   98  A    between atoms: _237  and  _240
REMARK   99  A    between atoms: _240  and  _241
REMARK  100  A    between atoms: _244  and  _246
REMARK  101  A    between atoms: _246  and  _247
REMARK  102  A    between atoms: _246  and  _249
REMARK  103  A    between atoms: _252  and  _254
REMARK  104  A    between atoms: _254  and  _255
REMARK  105  A    between atoms: _254  and  _257
REMARK  106  A    between atoms: _257  and  _258
REMARK  107  A    between atoms: _261  and  _263
REMARK  108  A    between atoms: _263  and  _264
REMARK  109  A    between atoms: _267  and  _269
REMARK  110  A    between atoms: _269  and  _270
REMARK  111  A    between atoms: _269  and  _272
REMARK  112  A    between atoms: _272  and  _273
REMARK  113  A    between atoms: _278  and  _280
REMARK  114  A    between atoms: _280  and  _281
REMARK  115  A    between atoms: _280  and  _283
REMARK  116  A    between atoms: _283  and  _284
REMARK  117  A    between atoms: _284  and  _285
REMARK  118  A    between atoms: _288  and  _290
REMARK  119  A    between atoms: _290  and  _291
REMARK  120  A    between atoms: _290  and  _293
REMARK  121  A    between atoms: _293  and  _294
REMARK  122  A    between atoms: _299  and  _301
REMARK  123  A    between atoms: _301  and  _302
REMARK  124  A    between atoms: _301  and  _304
REMARK  125  A    between atoms: _304  and  _305
REMARK  126  A    between atoms: _315  and  _317
REMARK  127  A    between atoms: _317  and  _318
REMARK  128  A    between atoms: _317  and  _320
REMARK  129  A    between atoms: _320  and  _321
REMARK  130  A    between atoms: _324  and  _326
REMARK  131  A    between atoms: _326  and  _327
REMARK  132  A    between atoms: _326  and  _329
REMARK  133  A    between atoms: _329  and  _330
REMARK  134  A    between atoms: _335  and  _337
REMARK  135  A    between atoms: _337  and  _338
REMARK  136  A    between atoms: _337  and  _340
REMARK  137  A    between atoms: _340  and  _341
REMARK  138  A    between atoms: _341  and  _342
REMARK  139  A    between atoms: _345  and  _347
REMARK  140  A    between atoms: _347  and  _348
REMARK  141  A    between atoms: _351  and  _353
REMARK  142  A    between atoms: _353  and  _354
REMARK  143  A    between atoms: _353  and  _356
REMARK  144  A    between atoms: _356  and  _357
REMARK  145  A    between atoms: _359  and  _361
REMARK  146  A    between atoms: _361  and  _362
REMARK  147  A    between atoms: _361  and  _364
REMARK  148  A    between atoms: _364  and  _365
REMARK  149  A    between atoms: _365  and  _366
REMARK  150  A    between atoms: _369  and  _371
REMARK  151  A    between atoms: _371  and  _372
REMARK  152  A    between atoms: _371  and  _374
REMARK  153  A    between atoms: _374  and  _375
REMARK  154  A    between atoms: _380  and  _381
REMARK  155  A    between atoms: _383  and  _385
REMARK  156  A    between atoms: _385  and  _386
REMARK  157  A    between atoms: _385  and  _388
REMARK  158  A    between atoms: _388  and  _389
REMARK  159  A    between atoms: _392  and  _394
REMARK  160  A    between atoms: _394  and  _395
REMARK  161  A    between atoms: _394  and  _397
REMARK  162  A    between atoms: _397  and  _398
REMARK  163  A    between atoms: _403  and  _405
REMARK  164  A    between atoms: _405  and  _406
REMARK  165  A    between atoms: _405  and  _408
REMARK  166  A    between atoms: _408  and  _409
REMARK  167  A    between atoms: _412  and  _414
REMARK  168  A    between atoms: _414  and  _415
REMARK  169  A    between atoms: _414  and  _417
REMARK  170  A    between atoms: _417  and  _418
REMARK  171  A    between atoms: _423  and  _424
REMARK  172  A    between atoms: _426  and  _428
REMARK  173  A    between atoms: _428  and  _429
REMARK  174  A    between atoms: _428  and  _431
REMARK  175  A    between atoms: _431  and  _432
REMARK  176  A    between atoms: _432  and  _433
REMARK  177  A    between atoms: _433  and  _434
REMARK  178  A    between atoms: _443  and  _445
REMARK  179  A    between atoms: _445  and  _446
REMARK  180  A    between atoms: _445  and  _448
REMARK  181  A    between atoms: _451  and  _453
REMARK  182  A    between atoms: _453  and  _454
REMARK  183  A    between atoms: _457  and  _459
REMARK  184  A    between atoms: _459  and  _460
REMARK  185  A    between atoms: _459  and  _462
REMARK  186  A    between atoms: _465  and  _467
REMARK  187  A    between atoms: _467  and  _468
REMARK  188  A    between atoms: _467  and  _470
REMARK  189  A    between atoms: _470  and  _471
REMARK  190  A    between atoms: _473  and  _475
REMARK  191  A    between atoms: _475  and  _476
REMARK  192  A    between atoms: _475  and  _478
REMARK  193  A    between atoms: _478  and  _479
REMARK  194  A    between atoms: _479  and  _480
REMARK  195  A    between atoms: _483  and  _485
REMARK  196  A    between atoms: _485  and  _486
REMARK  197  A    between atoms: _485  and  _488
REMARK  198  A    between atoms: _488  and  _489
REMARK  199  A    between atoms: _492  and  _494
REMARK  200  A    between atoms: _494  and  _495
REMARK  201  A    between atoms: _494  and  _497
REMARK  202  A    between atoms: _497  and  _498
REMARK  203  A    between atoms: _504  and  _506
REMARK  204  A    between atoms: _506  and  _507
REMARK  205  A    between atoms: _506  and  _509
REMARK  206  A    between atoms: _509  and  _510
REMARK  207  A    between atoms: _513  and  _515
REMARK  208  A    between atoms: _515  and  _516
REMARK  209  A    between atoms: _519  and  _521
REMARK  210  A    between atoms: _521  and  _522
REMARK  211  A    between atoms: _521  and  _524
REMARK  212  A    between atoms: _524  and  _525
REMARK  213  A    between atoms: _530  and  _531
REMARK  214  A    between atoms: _533  and  _535
REMARK  215  A    between atoms: _535  and  _536
REMARK  216  A    between atoms: _535  and  _538
REMARK  217  A    between atoms: _538  and  _539
REMARK  218  A    between atoms: _541  and  _543
REMARK  219  A    between atoms: _543  and  _544
REMARK  220  A    between atoms: _543  and  _546
REMARK  221  A    between atoms: _546  and  _547
REMARK  222  A    between atoms: _550  and  _552
REMARK  223  A    between atoms: _552  and  _553
REMARK  224  A    between atoms: _552  and  _555
REMARK  225  A    between atoms: _555  and  _556
REMARK  226  A    between atoms: _558  and  _560
REMARK  227  A    between atoms: _560  and  _561
REMARK  228  A    between atoms: _560  and  _563
REMARK  229  A    between atoms: _563  and  _564
REMARK  230  A    between atoms: _567  and  _569
REMARK  231  A    between atoms: _569  and  _570
REMARK  232  A    between atoms: _569  and  _572
REMARK  233  A    between atoms: _572  and  _573
REMARK  234  A    between atoms: _575  and  _577
REMARK  235  A    between atoms: _577  and  _578
REMARK  236  A    between atoms: _577  and  _580
REMARK  237  A    between atoms: _580  and  _581
REMARK  238  A    between atoms: _584  and  _586
REMARK  239  A    between atoms: _586  and  _587
REMARK  240  A    between atoms: _586  and  _589
REMARK  241  A    between atoms: _589  and  _590
REMARK  242  A    between atoms: _595  and  _597
REMARK  243  A    between atoms: _597  and  _598
REMARK  244  A    between atoms: _597  and  _600
REMARK  245  A    between atoms: _600  and  _601
REMARK  246  A    between atoms: _603  and  _605
REMARK  247  A    between atoms: _605  and  _606
REMARK  248  A    between atoms: _605  and  _608
REMARK  249  A    between atoms: _608  and  _609
REMARK  250  A    between atoms: _615  and  _617
REMARK  251  A    between atoms: _617  and  _618
REMARK  252  A    between atoms: _617  and  _620
REMARK  253  A    between atoms: _620  and  _621
REMARK  254  A    between atoms: _623  and  _625
REMARK  255  A    between atoms: _625  and  _626
REMARK  256  A    between atoms: _625  and  _628
REMARK  257  A    between atoms: _628  and  _629
REMARK  258  A    between atoms: _635  and  _637
REMARK  259  A    between atoms: _637  and  _638
REMARK  260  A    between atoms: _637  and  _640
REMARK  261  A    between atoms: _640  and  _641
REMARK  262  A    between atoms: _643  and  _645
REMARK  263  A    between atoms: _645  and  _646
REMARK  264  A    between atoms: _645  and  _648
REMARK  265  A    between atoms: _648  and  _649
REMARK  266  A    between atoms: _654  and  _656
REMARK  267  A    between atoms: _656  and  _657
REMARK  268  A    between atoms: _656  and  _659
REMARK  269  A    between atoms: _659  and  _660
REMARK  270  A    between atoms: _663  and  _665
REMARK  271  A    between atoms: _665  and  _666
REMARK  272  A    between atoms: _665  and  _668
REMARK  273  A    between atoms: _668  and  _669
REMARK  274  A    between atoms: _672  and  _674
REMARK  275  A    between atoms: _674  and  _675
REMARK  276  A    between atoms: _674  and  _677
REMARK  277  A    between atoms: _677  and  _678
REMARK  278  A    between atoms: _678  and  _679
REMARK  279  A    between atoms: _684  and  _686
REMARK  280  A    between atoms: _686  and  _687
REMARK  281  A    between atoms: _690  and  _692
REMARK  282  A    between atoms: _692  and  _693
REMARK  283  A    between atoms: _692  and  _695
REMARK  284  A    between atoms: _698  and  _700
REMARK  285  A    between atoms: _700  and  _701
REMARK  286  A    between atoms: _700  and  _703
REMARK  287  A    between atoms: _703  and  _704
REMARK  288  A    between atoms: _707  and  _709
REMARK  289  A    between atoms: _709  and  _710
REMARK  290  A    between atoms: _709  and  _712
REMARK  291  A    between atoms: _712  and  _713
REMARK  292  A    between atoms: _713  and  _714
REMARK  293  A    between atoms: _714  and  _715
REMARK  294  A    between atoms: _724  and  _726
REMARK  295  A    between atoms: _726  and  _727
REMARK  296  A    between atoms: _726  and  _729
REMARK  297  A    between atoms: _729  and  _730
REMARK  298  A    between atoms: _730  and  _731
REMARK  299  A    between atoms: _731  and  _732
REMARK  300  A    between atoms: _732  and  _733
REMARK                            x       y       z     vdW  Elec       q    Type
REMARK                         _______ _______ _______ _____ _____    ______ ____
ROOT
ATOM      1  C   THR A   1      97.350   6.353  17.952  0.00  0.00    +0.241 C 
ATOM      2  O   THR A   1      96.145   6.528  17.870  0.00  0.00    -0.274 OA
ATOM      3  N   SER A   2      98.204   6.884  17.087  0.00  0.00    -0.296 N 
ATOM      4  H   SER A   2      99.222   6.718  17.224  0.00  0.00    +0.150 HD
ENDROOT
BRANCH   1   5
ATOM      5  CA  THR A   1      97.933   5.417  19.015  0.00  0.00    +0.172 C 
BRANCH   5   6
ATOM      6  N   THR A   1      99.120   4.652  18.536  0.00  0.00    -0.236 NA
ATOM      7  H   THR A   1     100.066   4.874  18.906  0.00  0.00    +0.142 HD
ENDBRANCH   5   6
BRANCH   5   8
ATOM      8  CB  THR A   1      98.223   6.196  20.332  0.00  0.00    +0.135 C 
ATOM      9  CG2 THR A   1      98.508   5.232  21.446  0.00  0.00    +0.034 C 
BRANCH   8  10
ATOM     10  OG1 THR A   1      99.387   6.985  20.150  0.00  0.00    -0.383 OA
ATOM     11  HG1 THR A   1     100.153   6.396  19.933  0.00  0.00    +0.210 HD
ENDBRANCH   8  10
ENDBRANCH   5   8
ENDBRANCH   1   5
BRANCH   3  12
ATOM     12  CA  SER A   2      97.771   7.694  15.947  0.00  0.00    +0.166 C 
BRANCH  12  13
ATOM     13  C   SER A   2      96.805   6.897  15.034  0.00  0.00    +0.229 C 
ATOM     14  O   SER A   2      95.774   7.414  14.556  0.00  0.00    -0.286 OA
ENDBRANCH  12  13
BRANCH  12  15
ATOM     15  CB  SER A   2      99.024   8.087  15.146  0.00  0.00    +0.165 C 
BRANCH  15  16
ATOM     16  OG  SER A   2      98.686   8.420  13.829  0.00  0.00    -0.380 OA
ATOM     17  H   SER A   2      99.505   8.669  13.332  0.00  0.00    +0.211 HD
ENDBRANCH  15  16
ENDBRANCH  12  15
ENDBRANCH   3  12
TORSDOF 8
REMARK  Name = ../refined-set-2016/4fys/4fys_pocket.pdb
REMARK  300 active torsions:
REMARK  status: ('A' for Active; 'I' for Inactive)
REMARK    1  A    between atoms: _1  and  _3
REMARK    2  A    between atoms: _3  and  _4
REMARK    3  A    between atoms: _3  and  _6
REMARK    4  A    between atoms: _6  and  _7
REMARK    5  A    between atoms: _7  and  _8
REMARK    6  A    between atoms: _13  and  _15
REMARK    7  A    between atoms: _15  and  _16
REMARK    8  A    between atoms: _15  and  _18
REMARK    9  A    between atoms: _18  and  _19
REMARK   10  A    between atoms: _19  and  _20
REMARK   11  A    between atoms: _22  and  _24
REMARK   12  A    between atoms: _24  and  _25
REMARK   13  A    between atoms: _24  and  _27
REMARK   14  A    between atoms: _27  and  _28
REMARK   15  A    between atoms: _28  and  _29
REMARK   16  A    between atoms: _34  and  _36
REMARK   17  A    between atoms: _36  and  _37
REMARK   18  A    between atoms: _40  and  _42
REMARK   19  A    between atoms: _42  and  _43
REMARK   20  A    between atoms: _42  and  _45
REMARK   21  A    between atoms: _45  and  _46
REMARK   22  A    between atoms: _51  and  _52
REMARK   23  A    between atoms: _54  and  _56
REMARK   24  A    between atoms: _56  and  _57
REMARK   25  A    between atoms: _56  and  _59
REMARK   26  A    between atoms: _59  and  _60
REMARK   27  A    between atoms: _63  and  _65
REMARK   28  A    between atoms: _65  and  _66
REMARK   29  A    between atoms: _65  and  _68
REMARK   30  A    between atoms: _68  and  _69
REMARK   31  A    between atoms: _75  and  _77
REMARK   32  A    between atoms: _77  and  _78
REMARK   33  A    between atoms: _77  and  _80
REMARK   34  A    between atoms: _80  and  _81
REMARK   35  A    between atoms: _86  and  _88
REMARK   36  A    between atoms: _88  and  _89
REMARK   37  A    between atoms: _92  and  _94
REMARK   38  A    between atoms: _94  and  _95
REMARK   39  A    between atoms: _97  and  _99
REMARK   40  A    between atoms: _99  and  _100
REMARK   41  A    between atoms: _103  and  _105
REMARK   42  A    between atoms: _105  and  _106
REMARK   43  A    between atoms: _105  and  _108
REMARK   44  A    between atoms: _108  and  _109
REMARK   45  A    between atoms: _109  and  _110
REMARK   46  A    between atoms: _112  and  _114
REMARK   47  A    between atoms: _114  and  _115
REMARK   48  A    between atoms: _114  and  _117
REMARK   49  A    between atoms: _117  and  _118
REMARK   50  A    between atoms: _118  and  _119
REMARK   51  A    between atoms: _122  and  _124
REMARK   52  A    between atoms: _124  and  _125
REMARK   53  A    between atoms: _124  and  _127
REMARK   54  A    between atoms: _127  and  _128
REMARK   55  A    between atoms: _133  and  _135
REMARK   56  A    between atoms: _135  and  _136
REMARK   57  A    between atoms: _135  and  _138
REMARK   58  A    between atoms: _138  and  _139
REMARK   59  A    between atoms: _142  and  _144
REMARK   60  A    between atoms: _144  and  _145
REMARK   61  A    between atoms: _144  and  _147
REMARK   62  A    between atoms: _147  and  _148
REMARK   63  A    between atoms: _153  and  _154
REMARK   64  A    between atoms: _156  and  _158
REMARK   65  A    between atoms: _158  and  _159
REMARK   66  A    between atoms: _158  and  _161
REMARK   67  A    between atoms: _161  and  _162
REMARK   68  A    between atoms: _162  and  _163
REMARK   69  A    between atoms: _163  and  _164
REMARK   70  A    between atoms: _173  and  _175
REMARK   71  A    between atoms: _175  and  _176
REMARK   72  A    between atoms: _175  and  _178
REMARK   73  A    between atoms: _178  and  _179
REMARK   74  A    between atoms: _184  and  _186
REMARK   75  A    between atoms: _186  and  _187
REMARK   76  A    between atoms: _186  and  _189
REMARK   77  A    between atoms: _189  and  _190
REMARK   78  A    between atoms: _192  and  _194
REMARK   79  A    between atoms: _194  and  _195
REMARK   80  A    between atoms: _194  and  _197
REMARK   81  A    between atoms: _197  and  _198
REMARK   82  A    between atoms: _200  and  _202
REMARK   83  A    between atoms: _202  and  _203
REMARK   84  A    between atoms: _202  and  _205
REMARK   85  A    between atoms: _205  and  _206
REMARK   86  A    between atoms: _206  and  _207
REMARK   87  A    between atoms: _210  and  _212
REMARK   88  A    between atoms: _212  and  _213
REMARK   89  A    between atoms: _212  and  _215
REMARK   90  A    between atoms: _215  and  _216
REMARK   91  A    between atoms: _216  and  _217
REMARK   92  A    between atoms: _217  and  _218
REMARK   93  A    between atoms: _227  and  _229
REMARK   94  A    between atoms: _229  and  _230
REMARK   95  A    between atoms: _229  and  _232
REMARK   96  A    between atoms: _235  and  _237
REMARK   97  A    between atoms: _237  and  _238
REMARK   98  A    between atoms: _237  and  _240
REMARK   99  A    between atoms: _240  and  _241
REMARK  100  A    between atoms: _244  and  _246
REMARK  101  A    between atoms: _246  and  _247
REMARK  102  A    between atoms: _246  and  _249
REMARK  103  A    between atoms: _252  and  _254
REMARK  104  A    between atoms: _254  and  _255
REMARK  105  A    between atoms: _254  and  _257
REMARK  106  A    between atoms: _257  and  _258
REMARK  107  A    between atoms: _261  and  _263
REMARK  108  A    between atoms: _263  and  _264
REMARK  109  A    between atoms: _267  and  _269
REMARK  110  A    between atoms: _269  and  _270
REMARK  111  A    between atoms: _269  and  _272
REMARK  112  A    between atoms: _272  and  _273
REMARK  113  A    between atoms: _278  and  _280
REMARK  114  A    between atoms: _280  and  _281
REMARK  115  A    between atoms: _280  and  _283
REMARK  116  A    between atoms: _283  and  _284
REMARK  117  A    between atoms: _284  and  _285
REMARK  118  A    between atoms: _288  and  _290
REMARK  119  A    between atoms: _290  and  _291
REMARK  120  A    between atoms: _290  and  _293
REMARK  121  A    between atoms: _293  and  _294
REMARK  122  A    between atoms: _299  and  _301
REMARK  123  A    between atoms: _301  and  _302
REMARK  124  A    between atoms: _301  and  _304
REMARK  125  A    between atoms: _304  and  _305
REMARK  126  A    between atoms: _315  and  _317
REMARK  127  A    between atoms: _317  and  _318
REMARK  128  A    between atoms: _317  and  _320
REMARK  129  A    between atoms: _320  and  _321
REMARK  130  A    between atoms: _324  and  _326
REMARK  131  A    between atoms: _326  and  _327
REMARK  132  A    between atoms: _326  and  _329
REMARK  133  A    between atoms: _329  and  _330
REMARK  134  A    between atoms: _335  and  _337
REMARK  135  A    between atoms: _337  and  _338
REMARK  136  A    between atoms: _337  and  _340
REMARK  137  A    between atoms: _340  and  _341
REMARK  138  A    between atoms: _341  and  _342
REMARK  139  A    between atoms: _345  and  _347
REMARK  140  A    between atoms: _347  and  _348
REMARK  141  A    between atoms: _351  and  _353
REMARK  142  A    between atoms: _353  and  _354
REMARK  143  A    between atoms: _353  and  _356
REMARK  144  A    between atoms: _356  and  _357
REMARK  145  A    between atoms: _359  and  _361
REMARK  146  A    between atoms: _361  and  _362
REMARK  147  A    between atoms: _361  and  _364
REMARK  148  A    between atoms: _364  and  _365
REMARK  149  A    between atoms: _365  and  _366
REMARK  150  A    between atoms: _369  and  _371
REMARK  151  A    between atoms: _371  and  _372
REMARK  152  A    between atoms: _371  and  _374
REMARK  153  A    between atoms: _374  and  _375
REMARK  154  A    between atoms: _380  and  _381
REMARK  155  A    between atoms: _383  and  _385
REMARK  156  A    between atoms: _385  and  _386
REMARK  157  A    between atoms: _385  and  _388
REMARK  158  A    between atoms: _388  and  _389
REMARK  159  A    between atoms: _392  and  _394
REMARK  160  A    between atoms: _394  and  _395
REMARK  161  A    between atoms: _394  and  _397
REMARK  162  A    between atoms: _397  and  _398
REMARK  163  A    between atoms: _403  and  _405
REMARK  164  A    between atoms: _405  and  _406
REMARK  165  A    between atoms: _405  and  _408
REMARK  166  A    between atoms: _408  and  _409
REMARK  167  A    between atoms: _412  and  _414
REMARK  168  A    between atoms: _414  and  _415
REMARK  169  A    between atoms: _414  and  _417
REMARK  170  A    between atoms: _417  and  _418
REMARK  171  A    between atoms: _423  and  _424
REMARK  172  A    between atoms: _426  and  _428
REMARK  173  A    between atoms: _428  and  _429
REMARK  174  A    between atoms: _428  and  _431
REMARK  175  A    between atoms: _431  and  _432
REMARK  176  A    between atoms: _432  and  _433
REMARK  177  A    between atoms: _433  and  _434
REMARK  178  A    between atoms: _443  and  _445
REMARK  179  A    between atoms: _445  and  _446
REMARK  180  A    between atoms: _445  and  _448
REMARK  181  A    between atoms: _451  and  _453
REMARK  182  A    between atoms: _453  and  _454
REMARK  183  A    between atoms: _457  and  _459
REMARK  184  A    between atoms: _459  and  _460
REMARK  185  A    between atoms: _459  and  _462
REMARK  186  A    between atoms: _465  and  _467
REMARK  187  A    between atoms: _467  and  _468
REMARK  188  A    between atoms: _467  and  _470
REMARK  189  A    between atoms: _470  and  _471
REMARK  190  A    between atoms: _473  and  _475
REMARK  191  A    between atoms: _475  and  _476
REMARK  192  A    between atoms: _475  and  _478
REMARK  193  A    between atoms: _478  and  _479
REMARK  194  A    between atoms: _479  and  _480
REMARK  195  A    between atoms: _483  and  _485
REMARK  196  A    between atoms: _485  and  _486
REMARK  197  A    between atoms: _485  and  _488
REMARK  198  A    between atoms: _488  and  _489
REMARK  199  A    between atoms: _492  and  _494
REMARK  200  A    between atoms: _494  and  _495
REMARK  201  A    between atoms: _494  and  _497
REMARK  202  A    between atoms: _497  and  _498
REMARK  203  A    between atoms: _504  and  _506
REMARK  204  A    between atoms: _506  and  _507
REMARK  205  A    between atoms: _506  and  _509
REMARK  206  A    between atoms: _509  and  _510
REMARK  207  A    between atoms: _513  and  _515
REMARK  208  A    between atoms: _515  and  _516
REMARK  209  A    between atoms: _519  and  _521
REMARK  210  A    between atoms: _521  and  _522
REMARK  211  A    between atoms: _521  and  _524
REMARK  212  A    between atoms: _524  and  _525
REMARK  213  A    between atoms: _530  and  _531
REMARK  214  A    between atoms: _533  and  _535
REMARK  215  A    between atoms: _535  and  _536
REMARK  216  A    between atoms: _535  and  _538
REMARK  217  A    between atoms: _538  and  _539
REMARK  218  A    between atoms: _541  and  _543
REMARK  219  A    between atoms: _543  and  _544
REMARK  220  A    between atoms: _543  and  _546
REMARK  221  A    between atoms: _546  and  _547
REMARK  222  A    between atoms: _550  and  _552
REMARK  223  A    between atoms: _552  and  _553
REMARK  224  A    between atoms: _552  and  _555
REMARK  225  A    between atoms: _555  and  _556
REMARK  226  A    between atoms: _558  and  _560
REMARK  227  A    between atoms: _560  and  _561
REMARK  228  A    between atoms: _560  and  _563
REMARK  229  A    between atoms: _563  and  _564
REMARK  230  A    between atoms: _567  and  _569
REMARK  231  A    between atoms: _569  and  _570
REMARK  232  A    between atoms: _569  and  _572
REMARK  233  A    between atoms: _572  and  _573
REMARK  234  A    between atoms: _575  and  _577
REMARK  235  A    between atoms: _577  and  _578
REMARK  236  A    between atoms: _577  and  _580
REMARK  237  A    between atoms: _580  and  _581
REMARK  238  A    between atoms: _584  and  _586
REMARK  239  A    between atoms: _586  and  _587
REMARK  240  A    between atoms: _586  and  _589
REMARK  241  A    between atoms: _589  and  _590
REMARK  242  A    between atoms: _595  and  _597
REMARK  243  A    between atoms: _597  and  _598
REMARK  244  A    between atoms: _597  and  _600
REMARK  245  A    between atoms: _600  and  _601
REMARK  246  A    between atoms: _603  and  _605
REMARK  247  A    between atoms: _605  and  _606
REMARK  248  A    between atoms: _605  and  _608
REMARK  249  A    between atoms: _608  and  _609
REMARK  250  A    between atoms: _615  and  _617
REMARK  251  A    between atoms: _617  and  _618
REMARK  252  A    between atoms: _617  and  _620
REMARK  253  A    between atoms: _620  and  _621
REMARK  254  A    between atoms: _623  and  _625
REMARK  255  A    between atoms: _625  and  _626
REMARK  256  A    between atoms: _625  and  _628
REMARK  257  A    between atoms: _628  and  _629
REMARK  258  A    between atoms: _635  and  _637
REMARK  259  A    between atoms: _637  and  _638
REMARK  260  A    between atoms: _637  and  _640
REMARK  261  A    between atoms: _640  and  _641
REMARK  262  A    between atoms: _643  and  _645
REMARK  263  A    between atoms: _645  and  _646
REMARK  264  A    between atoms: _645  and  _648
REMARK  265  A    between atoms: _648  and  _649
REMARK  266  A    between atoms: _654  and  _656
REMARK  267  A    between atoms: _656  and  _657
REMARK  268  A    between atoms: _656  and  _659
REMARK  269  A    between atoms: _659  and  _660
REMARK  270  A    between atoms: _663  and  _665
REMARK  271  A    between atoms: _665  and  _666
REMARK  272  A    between atoms: _665  and  _668
REMARK  273  A    between atoms: _668  and  _669
REMARK  274  A    between atoms: _672  and  _674
REMARK  275  A    between atoms: _674  and  _675
REMARK  276  A    between atoms: _674  and  _677
REMARK  277  A    between atoms: _677  and  _678
REMARK  278  A    between atoms: _678  and  _679
REMARK  279  A    between atoms: _684  and  _686
REMARK  280  A    between atoms: _686  and  _687
REMARK  281  A    between atoms: _690  and  _692
REMARK  282  A    between atoms: _692  and  _693
REMARK  283  A    between atoms: _692  and  _695
REMARK  284  A    between atoms: _698  and  _700
REMARK  285  A    between atoms: _700  and  _701
REMARK  286  A    between atoms: _700  and  _703
REMARK  287  A    between atoms: _703  and  _704
REMARK  288  A    between atoms: _707  and  _709
REMARK  289  A    between atoms: _709  and  _710
REMARK  290  A    between atoms: _709  and  _712
REMARK  291  A    between atoms: _712  and  _713
REMARK  292  A    between atoms: _713  and  _714
REMARK  293  A    between atoms: _714  and  _715
REMARK  294  A    between atoms: _724  and  _726
REMARK  295  A    between atoms: _726  and  _727
REMARK  296  A    between atoms: _726  and  _729
REMARK  297  A    between atoms: _729  and  _730
REMARK  298  A    between atoms: _730  and  _731
REMARK  299  A    between atoms: _731  and  _732
REMARK  300  A    between atoms: _732  and  _733
REMARK                            x       y       z     vdW  Elec       q    Type
REMARK                         _______ _______ _______ _____ _____    ______ ____
ROOT
ATOM      1  C   ILE A   1      91.992   7.585  15.280  0.00  0.00    +0.238 C 
ATOM      2  O   ILE A   1      90.808   7.950  15.186  0.00  0.00    -0.274 OA
ATOM      3  N   SER A   2      92.718   7.212  14.218  0.00  0.00    -0.296 N 
ATOM      4  H   SER A   2      93.714   6.945  14.349  0.00  0.00    +0.150 HD
ENDROOT
BRANCH   1   5
ATOM      5  CA  ILE A   1      92.688   7.530  16.656  0.00  0.00    +0.145 C 
BRANCH   5   6
ATOM      6  N   ILE A   1      93.486   6.301  16.818  0.00  0.00    -0.238 NA
ATOM      7  H   ILE A   1      94.506   6.377  17.009  0.00  0.00    +0.142 HD
ENDBRANCH   5   6
BRANCH   5   8
ATOM      8  CB  ILE A   1      93.534   8.791  16.965  0.00  0.00    +0.025 C 
ATOM      9  CG2 ILE A   1      92.870  10.064  16.412  0.00  0.00    +0.002 C 
BRANCH   8  10
ATOM     10  CG1 ILE A   1      93.772   8.869  18.488  0.00  0.00    +0.002 C 
ATOM     11  CD1 ILE A   1      94.940   9.767  18.892  0.00  0.00    +0.000 C 
ENDBRANCH   8  10
ENDBRANCH   5   8
ENDBRANCH   1   5
BRANCH   3  12
ATOM     12  CA  SER A   2      92.134   7.174  12.876  0.00  0.00    +0.166 C 
BRANCH  12  13
ATOM     13  CB  SER A   2      90.932   6.232  12.803  0.00  0.00    +0.229 C 
ATOM     14  OG  SER A   2      89.943   6.531  12.128  0.00  0.00    -0.286 OA
ENDBRANCH  12  13
BRANCH  12  15
ATOM     15  C   SER A   2      93.176   6.767  11.820  0.00  0.00    +0.165 C 
BRANCH  15  16
ATOM     16  O   SER A   2      94.096   7.813  11.627  0.00  0.00    -0.380 OA
ATOM     17  H   SER A   2      93.615   8.621  11.317  0.00  0.00    +0.211 HD
ENDBRANCH  15  16
ENDBRANCH  12  15
ENDBRANCH   3  12
TORSDOF 8
REMARK  Name = ../refined-set-2016/4fys/4fys_pocket.pdb
REMARK  300 active torsions:
REMARK  status: ('A' for Active; 'I' for Inactive)
REMARK    1  A    between atoms: _1  and  _3
REMARK    2  A    between atoms: _3  and  _4
REMARK    3  A    between atoms: _3  and  _6
REMARK    4  A    between atoms: _6  and  _7
REMARK    5  A    between atoms: _7  and  _8
REMARK    6  A    between atoms: _13  and  _15
REMARK    7  A    between atoms: _15  and  _16
REMARK    8  A    between atoms: _15  and  _18
REMARK    9  A    between atoms: _18  and  _19
REMARK   10  A    between atoms: _19  and  _20
REMARK   11  A    between atoms: _22  and  _24
REMARK   12  A    between atoms: _24  and  _25
REMARK   13  A    between atoms: _24  and  _27
REMARK   14  A    between atoms: _27  and  _28
REMARK   15  A    between atoms: _28  and  _29
REMARK   16  A    between atoms: _34  and  _36
REMARK   17  A    between atoms: _36  and  _37
REMARK   18  A    between atoms: _40  and  _42
REMARK   19  A    between atoms: _42  and  _43
REMARK   20  A    between atoms: _42  and  _45
REMARK   21  A    between atoms: _45  and  _46
REMARK   22  A    between atoms: _51  and  _52
REMARK   23  A    between atoms: _54  and  _56
REMARK   24  A    between atoms: _56  and  _57
REMARK   25  A    between atoms: _56  and  _59
REMARK   26  A    between atoms: _59  and  _60
REMARK   27  A    between atoms: _63  and  _65
REMARK   28  A    between atoms: _65  and  _66
REMARK   29  A    between atoms: _65  and  _68
REMARK   30  A    between atoms: _68  and  _69
REMARK   31  A    between atoms: _75  and  _77
REMARK   32  A    between atoms: _77  and  _78
REMARK   33  A    between atoms: _77  and  _80
REMARK   34  A    between atoms: _80  and  _81
REMARK   35  A    between atoms: _86  and  _88
REMARK   36  A    between atoms: _88  and  _89
REMARK   37  A    between atoms: _92  and  _94
REMARK   38  A    between atoms: _94  and  _95
REMARK   39  A    between atoms: _97  and  _99
REMARK   40  A    between atoms: _99  and  _100
REMARK   41  A    between atoms: _103  and  _105
REMARK   42  A    between atoms: _105  and  _106
REMARK   43  A    between atoms: _105  and  _108
REMARK   44  A    between atoms: _108  and  _109
REMARK   45  A    between atoms: _109  and  _110
REMARK   46  A    between atoms: _112  and  _114
REMARK   47  A    between atoms: _114  and  _115
REMARK   48  A    between atoms: _114  and  _117
REMARK   49  A    between atoms: _117  and  _118
REMARK   50  A    between atoms: _118  and  _119
REMARK   51  A    between atoms: _122  and  _124
REMARK   52  A    between atoms: _124  and  _125
REMARK   53  A    between atoms: _124  and  _127
REMARK   54  A    between atoms: _127  and  _128
REMARK   55  A    between atoms: _133  and  _135
REMARK   56  A    between atoms: _135  and  _136
REMARK   57  A    between atoms: _135  and  _138
REMARK   58  A    between atoms: _138  and  _139
REMARK   59  A    between atoms: _142  and  _144
REMARK   60  A    between atoms: _144  and  _145
REMARK   61  A    between atoms: _144  and  _147
REMARK   62  A    between atoms: _147  and  _148
REMARK   63  A    between atoms: _153  and  _154
REMARK   64  A    between atoms: _156  and  _158
REMARK   65  A    between atoms: _158  and  _159
REMARK   66  A    between atoms: _158  and  _161
REMARK   67  A    between atoms: _161  and  _162
REMARK   68  A    between atoms: _162  and  _163
REMARK   69  A    between atoms: _163  and  _164
REMARK   70  A    between atoms: _173  and  _175
REMARK   71  A    between atoms: _175  and  _176
REMARK   72  A    between atoms: _175  and  _178
REMARK   73  A    between atoms: _178  and  _179
REMARK   74  A    between atoms: _184  and  _186
REMARK   75  A    between atoms: _186  and  _187
REMARK   76  A    between atoms: _186  and  _189
REMARK   77  A    between atoms: _189  and  _190
REMARK   78  A    between atoms: _192  and  _194
REMARK   79  A    between atoms: _194  and  _195
REMARK   80  A    between atoms: _194  and  _197
REMARK   81  A    between atoms: _197  and  _198
REMARK   82  A    between atoms: _200  and  _202
REMARK   83  A    between atoms: _202  and  _203
REMARK   84  A    between atoms: _202  and  _205
REMARK   85  A    between atoms: _205  and  _206
REMARK   86  A    between atoms: _206  and  _207
REMARK   87  A    between atoms: _210  and  _212
REMARK   88  A    between atoms: _212  and  _213
REMARK   89  A    between atoms: _212  and  _215
REMARK   90  A    between atoms: _215  and  _216
REMARK   91  A    between atoms: _216  and  _217
REMARK   92  A    between atoms: _217  and  _218
REMARK   93  A    between atoms: _227  and  _229
REMARK   94  A    between atoms: _229  and  _230
REMARK   95  A    between atoms: _229  and  _232
REMARK   96  A    between atoms: _235  and  _237
REMARK   97  A    between atoms: _237  and  _238
REMARK   98  A    between atoms: _237  and  _240
REMARK   99  A    between atoms: _240  and  _241
REMARK  100  A    between atoms: _244  and  _246
REMARK  101  A    between atoms: _246  and  _247
REMARK  102  A    between atoms: _246  and  _249
REMARK  103  A    between atoms: _252  and  _254
REMARK  104  A    between atoms: _254  and  _255
REMARK  105  A    between atoms: _254  and  _257
REMARK  106  A    between atoms: _257  and  _258
REMARK  107  A    between atoms: _261  and  _263
REMARK  108  A    between atoms: _263  and  _264
REMARK  109  A    between atoms: _267  and  _269
REMARK  110  A    between atoms: _269  and  _270
REMARK  111  A    between atoms: _269  and  _272
REMARK  112  A    between atoms: _272  and  _273
REMARK  113  A    between atoms: _278  and  _280
REMARK  114  A    between atoms: _280  and  _281
REMARK  115  A    between atoms: _280  and  _283
REMARK  116  A    between atoms: _283  and  _284
REMARK  117  A    between atoms: _284  and  _285
REMARK  118  A    between atoms: _288  and  _290
REMARK  119  A    between atoms: _290  and  _291
REMARK  120  A    between atoms: _290  and  _293
REMARK  121  A    between atoms: _293  and  _294
REMARK  122  A    between atoms: _299  and  _301
REMARK  123  A    between atoms: _301  and  _302
REMARK  124  A    between atoms: _301  and  _304
REMARK  125  A    between atoms: _304  and  _305
REMARK  126  A    between atoms: _315  and  _317
REMARK  127  A    between atoms: _317  and  _318
REMARK  128  A    between atoms: _317  and  _320
REMARK  129  A    between atoms: _320  and  _321
REMARK  130  A    between atoms: _324  and  _326
REMARK  131  A    between atoms: _326  and  _327
REMARK  132  A    between atoms: _326  and  _329
REMARK  133  A    between atoms: _329  and  _330
REMARK  134  A    between atoms: _335  and  _337
REMARK  135  A    between atoms: _337  and  _338
REMARK  136  A    between atoms: _337  and  _340
REMARK  137  A    between atoms: _340  and  _341
REMARK  138  A    between atoms: _341  and  _342
REMARK  139  A    between atoms: _345  and  _347
REMARK  140  A    between atoms: _347  and  _348
REMARK  141  A    between atoms: _351  and  _353
REMARK  142  A    between atoms: _353  and  _354
REMARK  143  A    between atoms: _353  and  _356
REMARK  144  A    between atoms: _356  and  _357
REMARK  145  A    between atoms: _359  and  _361
REMARK  146  A    between atoms: _361  and  _362
REMARK  147  A    between atoms: _361  and  _364
REMARK  148  A    between atoms: _364  and  _365
REMARK  149  A    between atoms: _365  and  _366
REMARK  150  A    between atoms: _369  and  _371
REMARK  151  A    between atoms: _371  and  _372
REMARK  152  A    between atoms: _371  and  _374
REMARK  153  A    between atoms: _374  and  _375
REMARK  154  A    between atoms: _380  and  _381
REMARK  155  A    between atoms: _383  and  _385
REMARK  156  A    between atoms: _385  and  _386
REMARK  157  A    between atoms: _385  and  _388
REMARK  158  A    between atoms: _388  and  _389
REMARK  159  A    between atoms: _392  and  _394
REMARK  160  A    between atoms: _394  and  _395
REMARK  161  A    between atoms: _394  and  _397
REMARK  162  A    between atoms: _397  and  _398
REMARK  163  A    between atoms: _403  and  _405
REMARK  164  A    between atoms: _405  and  _406
REMARK  165  A    between atoms: _405  and  _408
REMARK  166  A    between atoms: _408  and  _409
REMARK  167  A    between atoms: _412  and  _414
REMARK  168  A    between atoms: _414  and  _415
REMARK  169  A    between atoms: _414  and  _417
REMARK  170  A    between atoms: _417  and  _418
REMARK  171  A    between atoms: _423  and  _424
REMARK  172  A    between atoms: _426  and  _428
REMARK  173  A    between atoms: _428  and  _429
REMARK  174  A    between atoms: _428  and  _431
REMARK  175  A    between atoms: _431  and  _432
REMARK  176  A    between atoms: _432  and  _433
REMARK  177  A    between atoms: _433  and  _434
REMARK  178  A    between atoms: _443  and  _445
REMARK  179  A    between atoms: _445  and  _446
REMARK  180  A    between atoms: _445  and  _448
REMARK  181  A    between atoms: _451  and  _453
REMARK  182  A    between atoms: _453  and  _454
REMARK  183  A    between atoms: _457  and  _459
REMARK  184  A    between atoms: _459  and  _460
REMARK  185  A    between atoms: _459  and  _462
REMARK  186  A    between atoms: _465  and  _467
REMARK  187  A    between atoms: _467  and  _468
REMARK  188  A    between atoms: _467  and  _470
REMARK  189  A    between atoms: _470  and  _471
REMARK  190  A    between atoms: _473  and  _475
REMARK  191  A    between atoms: _475  and  _476
REMARK  192  A    between atoms: _475  and  _478
REMARK  193  A    between atoms: _478  and  _479
REMARK  194  A    between atoms: _479  and  _480
REMARK  195  A    between atoms: _483  and  _485
REMARK  196  A    between atoms: _485  and  _486
REMARK  197  A    between atoms: _485  and  _488
REMARK  198  A    between atoms: _488  and  _489
REMARK  199  A    between atoms: _492  and  _494
REMARK  200  A    between atoms: _494  and  _495
REMARK  201  A    between atoms: _494  and  _497
REMARK  202  A    between atoms: _497  and  _498
REMARK  203  A    between atoms: _504  and  _506
REMARK  204  A    between atoms: _506  and  _507
REMARK  205  A    between atoms: _506  and  _509
REMARK  206  A    between atoms: _509  and  _510
REMARK  207  A    between atoms: _513  and  _515
REMARK  208  A    between atoms: _515  and  _516
REMARK  209  A    between atoms: _519  and  _521
REMARK  210  A    between atoms: _521  and  _522
REMARK  211  A    between atoms: _521  and  _524
REMARK  212  A    between atoms: _524  and  _525
REMARK  213  A    between atoms: _530  and  _531
REMARK  214  A    between atoms: _533  and  _535
REMARK  215  A    between atoms: _535  and  _536
REMARK  216  A    between atoms: _535  and  _538
REMARK  217  A    between atoms: _538  and  _539
REMARK  218  A    between atoms: _541  and  _543
REMARK  219  A    between atoms: _543  and  _544
REMARK  220  A    between atoms: _543  and  _546
REMARK  221  A    between atoms: _546  and  _547
REMARK  222  A    between atoms: _550  and  _552
REMARK  223  A    between atoms: _552  and  _553
REMARK  224  A    between atoms: _552  and  _555
REMARK  225  A    between atoms: _555  and  _556
REMARK  226  A    between atoms: _558  and  _560
REMARK  227  A    between atoms: _560  and  _561
REMARK  228  A    between atoms: _560  and  _563
REMARK  229  A    between atoms: _563  and  _564
REMARK  230  A    between atoms: _567  and  _569
REMARK  231  A    between atoms: _569  and  _570
REMARK  232  A    between atoms: _569  and  _572
REMARK  233  A    between atoms: _572  and  _573
REMARK  234  A    between atoms: _575  and  _577
REMARK  235  A    between atoms: _577  and  _578
REMARK  236  A    between atoms: _577  and  _580
REMARK  237  A    between atoms: _580  and  _581
REMARK  238  A    between atoms: _584  and  _586
REMARK  239  A    between atoms: _586  and  _587
REMARK  240  A    between atoms: _586  and  _589
REMARK  241  A    between atoms: _589  and  _590
REMARK  242  A    between atoms: _595  and  _597
REMARK  243  A    between atoms: _597  and  _598
REMARK  244  A    between atoms: _597  and  _600
REMARK  245  A    between atoms: _600  and  _601
REMARK  246  A    between atoms: _603  and  _605
REMARK  247  A    between atoms: _605  and  _606
REMARK  248  A    between atoms: _605  and  _608
REMARK  249  A    between atoms: _608  and  _609
REMARK  250  A    between atoms: _615  and  _617
REMARK  251  A    between atoms: _617  and  _618
REMARK  252  A    between atoms: _617  and  _620
REMARK  253  A    between atoms: _620  and  _621
REMARK  254  A    between atoms: _623  and  _625
REMARK  255  A    between atoms: _625  and  _626
REMARK  256  A    between atoms: _625  and  _628
REMARK  257  A    between atoms: _628  and  _629
REMARK  258  A    between atoms: _635  and  _637
REMARK  259  A    between atoms: _637  and  _638
REMARK  260  A    between atoms: _637  and  _640
REMARK  261  A    between atoms: _640  and  _641
REMARK  262  A    between atoms: _643  and  _645
REMARK  263  A    between atoms: _645  and  _646
REMARK  264  A    between atoms: _645  and  _648
REMARK  265  A    between atoms: _648  and  _649
REMARK  266  A    between atoms: _654  and  _656
REMARK  267  A    between atoms: _656  and  _657
REMARK  268  A    between atoms: _656  and  _659
REMARK  269  A    between atoms: _659  and  _660
REMARK  270  A    between atoms: _663  and  _665
REMARK  271  A    between atoms: _665  and  _666
REMARK  272  A    between atoms: _665  and  _668
REMARK  273  A    between atoms: _668  and  _669
REMARK  274  A    between atoms: _672  and  _674
REMARK  275  A    between atoms: _674  and  _675
REMARK  276  A    between atoms: _674  and  _677
REMARK  277  A    between atoms: _677  and  _678
REMARK  278  A    between atoms: _678  and  _679
REMARK  279  A    between atoms: _684  and  _686
REMARK  280  A    between atoms: _686  and  _687
REMARK  281  A    between atoms: _690  and  _692
REMARK  282  A    between atoms: _692  and  _693
REMARK  283  A    between atoms: _692  and  _695
REMARK  284  A    between atoms: _698  and  _700
REMARK  285  A    between atoms: _700  and  _701
REMARK  286  A    between atoms: _700  and  _703
REMARK  287  A    between atoms: _703  and  _704
REMARK  288  A    between atoms: _707  and  _709
REMARK  289  A    between atoms: _709  and  _710
REMARK  290  A    between atoms: _709  and  _712
REMARK  291  A    between atoms: _712  and  _713
REMARK  292  A    between atoms: _713  and  _714
REMARK  293  A    between atoms: _714  and  _715
REMARK  294  A    between atoms: _724  and  _726
REMARK  295  A    between atoms: _726  and  _727
REMARK  296  A    between atoms: _726  and  _729
REMARK  297  A    between atoms: _729  and  _730
REMARK  298  A    between atoms: _730  and  _731
REMARK  299  A    between atoms: _731  and  _732
REMARK  300  A    between atoms: _732  and  _733
REMARK                            x       y       z     vdW  Elec       q    Type
REMARK                         _______ _______ _______ _____ _____    ______ ____
ROOT
ATOM      1  C   THR A   1      87.105   7.022  15.545  0.00  0.00    +0.241 C 
ATOM      2  O   THR A   1      85.919   7.254  15.804  0.00  0.00    -0.274 OA
ATOM      3  N   ASN A   2      87.797   7.740  14.667  0.00  0.00    -0.298 N 
ATOM      4  H   ASN A   2      88.797   7.512  14.494  0.00  0.00    +0.150 HD
ENDROOT
BRANCH   1   5
ATOM      5  CA  THR A   1      87.838   5.876  16.243  0.00  0.00    +0.172 C 
BRANCH   5   6
ATOM      6  N   THR A   1      88.953   5.380  15.463  0.00  0.00    -0.236 NA
ATOM      7  H   THR A   1      89.931   5.541  15.780  0.00  0.00    +0.142 HD
ENDBRANCH   5   6
BRANCH   5   8
ATOM      8  CB  THR A   1      88.220   6.270  17.691  0.00  0.00    +0.135 C 
ATOM      9  CG2 THR A   1      88.817   7.641  17.765  0.00  0.00    +0.034 C 
BRANCH   8  10
ATOM     10  OG1 THR A   1      87.029   6.246  18.489  0.00  0.00    -0.383 OA
ATOM     11  HG1 THR A   1      86.374   6.891  18.121  0.00  0.00    +0.210 HD
ENDBRANCH   8  10
ENDBRANCH   5   8
ENDBRANCH   1   5
BRANCH   3  12
ATOM     12  CA  ASN A   2      87.174   8.846  13.940  0.00  0.00    +0.146 C 
BRANCH  12  13
ATOM     13  C   ASN A   2      86.153   8.346  12.900  0.00  0.00    +0.227 C 
ATOM     14  O   ASN A   2      85.260   9.099  12.486  0.00  0.00    -0.286 OA
ENDBRANCH  12  13
BRANCH  12  15
ATOM     15  CB  ASN A   2      88.256   9.668  13.230  0.00  0.00    +0.112 C 
BRANCH  15  16
ATOM     16  CG  ASN A   2      89.101  10.480  14.205  0.00  0.00    +0.222 C 
ATOM     17  OD1 ASN A   2      88.735  10.653  15.380  0.00  0.00    -0.275 OA
ATOM     18  ND2 ASN A   2      90.223  11.008  13.716  0.00  0.00    -0.329 N 
ATOM     19 HD21 ASN A   2      90.832  11.592  14.325  0.00  0.00    +0.145 HD
ATOM     20 HD22 ASN A   2      90.490  10.836  12.726  0.00  0.00    +0.145 HD
ENDBRANCH  15  16
ENDBRANCH  12  15
ENDBRANCH   3  12
TORSDOF 8
REMARK  Name = ../refined-set-2016/4fys/4fys_pocket.pdb
REMARK  300 active torsions:
REMARK  status: ('A' for Active; 'I' for Inactive)
REMARK    1  A    between atoms: _1  and  _3
REMARK    2  A    between atoms: _3  and  _4
REMARK    3  A    between atoms: _3  and  _6
REMARK    4  A    between atoms: _6  and  _7
REMARK    5  A    between atoms: _7  and  _8
REMARK    6  A    between atoms: _13  and  _15
REMARK    7  A    between atoms: _15  and  _16
REMARK    8  A    between atoms: _15  and  _18
REMARK    9  A    between atoms: _18  and  _19
REMARK   10  A    between atoms: _19  and  _20
REMARK   11  A    between atoms: _22  and  _24
REMARK   12  A    between atoms: _24  and  _25
REMARK   13  A    between atoms: _24  and  _27
REMARK   14  A    between atoms: _27  and  _28
REMARK   15  A    between atoms: _28  and  _29
REMARK   16  A    between atoms: _34  and  _36
REMARK   17  A    between atoms: _36  and  _37
REMARK   18  A    between atoms: _40  and  _42
REMARK   19  A    between atoms: _42  and  _43
REMARK   20  A    between atoms: _42  and  _45
REMARK   21  A    between atoms: _45  and  _46
REMARK   22  A    between atoms: _51  and  _52
REMARK   23  A    between atoms: _54  and  _56
REMARK   24  A    between atoms: _56  and  _57
REMARK   25  A    between atoms: _56  and  _59
REMARK   26  A    between atoms: _59  and  _60
REMARK   27  A    between atoms: _63  and  _65
REMARK   28  A    between atoms: _65  and  _66
REMARK   29  A    between atoms: _65  and  _68
REMARK   30  A    between atoms: _68  and  _69
REMARK   31  A    between atoms: _75  and  _77
REMARK   32  A    between atoms: _77  and  _78
REMARK   33  A    between atoms: _77  and  _80
REMARK   34  A    between atoms: _80  and  _81
REMARK   35  A    between atoms: _86  and  _88
REMARK   36  A    between atoms: _88  and  _89
REMARK   37  A    between atoms: _92  and  _94
REMARK   38  A    between atoms: _94  and  _95
REMARK   39  A    between atoms: _97  and  _99
REMARK   40  A    between atoms: _99  and  _100
REMARK   41  A    between atoms: _103  and  _105
REMARK   42  A    between atoms: _105  and  _106
REMARK   43  A    between atoms: _105  and  _108
REMARK   44  A    between atoms: _108  and  _109
REMARK   45  A    between atoms: _109  and  _110
REMARK   46  A    between atoms: _112  and  _114
REMARK   47  A    between atoms: _114  and  _115
REMARK   48  A    between atoms: _114  and  _117
REMARK   49  A    between atoms: _117  and  _118
REMARK   50  A    between atoms: _118  and  _119
REMARK   51  A    between atoms: _122  and  _124
REMARK   52  A    between atoms: _124  and  _125
REMARK   53  A    between atoms: _124  and  _127
REMARK   54  A    between atoms: _127  and  _128
REMARK   55  A    between atoms: _133  and  _135
REMARK   56  A    between atoms: _135  and  _136
REMARK   57  A    between atoms: _135  and  _138
REMARK   58  A    between atoms: _138  and  _139
REMARK   59  A    between atoms: _142  and  _144
REMARK   60  A    between atoms: _144  and  _145
REMARK   61  A    between atoms: _144  and  _147
REMARK   62  A    between atoms: _147  and  _148
REMARK   63  A    between atoms: _153  and  _154
REMARK   64  A    between atoms: _156  and  _158
REMARK   65  A    between atoms: _158  and  _159
REMARK   66  A    between atoms: _158  and  _161
REMARK   67  A    between atoms: _161  and  _162
REMARK   68  A    between atoms: _162  and  _163
REMARK   69  A    between atoms: _163  and  _164
REMARK   70  A    between atoms: _173  and  _175
REMARK   71  A    between atoms: _175  and  _176
REMARK   72  A    between atoms: _175  and  _178
REMARK   73  A    between atoms: _178  and  _179
REMARK   74  A    between atoms: _184  and  _186
REMARK   75  A    between atoms: _186  and  _187
REMARK   76  A    between atoms: _186  and  _189
REMARK   77  A    between atoms: _189  and  _190
REMARK   78  A    between atoms: _192  and  _194
REMARK   79  A    between atoms: _194  and  _195
REMARK   80  A    between atoms: _194  and  _197
REMARK   81  A    between atoms: _197  and  _198
REMARK   82  A    between atoms: _200  and  _202
REMARK   83  A    between atoms: _202  and  _203
REMARK   84  A    between atoms: _202  and  _205
REMARK   85  A    between atoms: _205  and  _206
REMARK   86  A    between atoms: _206  and  _207
REMARK   87  A    between atoms: _210  and  _212
REMARK   88  A    between atoms: _212  and  _213
REMARK   89  A    between atoms: _212  and  _215
REMARK   90  A    between atoms: _215  and  _216
REMARK   91  A    between atoms: _216  and  _217
REMARK   92  A    between atoms: _217  and  _218
REMARK   93  A    between atoms: _227  and  _229
REMARK   94  A    between atoms: _229  and  _230
REMARK   95  A    between atoms: _229  and  _232
REMARK   96  A    between atoms: _235  and  _237
REMARK   97  A    between atoms: _237  and  _238
REMARK   98  A    between atoms: _237  and  _240
REMARK   99  A    between atoms: _240  and  _241
REMARK  100  A    between atoms: _244  and  _246
REMARK  101  A    between atoms: _246  and  _247
REMARK  102  A    between atoms: _246  and  _249
REMARK  103  A    between atoms: _252  and  _254
REMARK  104  A    between atoms: _254  and  _255
REMARK  105  A    between atoms: _254  and  _257
REMARK  106  A    between atoms: _257  and  _258
REMARK  107  A    between atoms: _261  and  _263
REMARK  108  A    between atoms: _263  and  _264
REMARK  109  A    between atoms: _267  and  _269
REMARK  110  A    between atoms: _269  and  _270
REMARK  111  A    between atoms: _269  and  _272
REMARK  112  A    between atoms: _272  and  _273
REMARK  113  A    between atoms: _278  and  _280
REMARK  114  A    between atoms: _280  and  _281
REMARK  115  A    between atoms: _280  and  _283
REMARK  116  A    between atoms: _283  and  _284
REMARK  117  A    between atoms: _284  and  _285
REMARK  118  A    between atoms: _288  and  _290
REMARK  119  A    between atoms: _290  and  _291
REMARK  120  A    between atoms: _290  and  _293
REMARK  121  A    between atoms: _293  and  _294
REMARK  122  A    between atoms: _299  and  _301
REMARK  123  A    between atoms: _301  and  _302
REMARK  124  A    between atoms: _301  and  _304
REMARK  125  A    between atoms: _304  and  _305
REMARK  126  A    between atoms: _315  and  _317
REMARK  127  A    between atoms: _317  and  _318
REMARK  128  A    between atoms: _317  and  _320
REMARK  129  A    between atoms: _320  and  _321
REMARK  130  A    between atoms: _324  and  _326
REMARK  131  A    between atoms: _326  and  _327
REMARK  132  A    between atoms: _326  and  _329
REMARK  133  A    between atoms: _329  and  _330
REMARK  134  A    between atoms: _335  and  _337
REMARK  135  A    between atoms: _337  and  _338
REMARK  136  A    between atoms: _337  and  _340
REMARK  137  A    between atoms: _340  and  _341
REMARK  138  A    between atoms: _341  and  _342
REMARK  139  A    between atoms: _345  and  _347
REMARK  140  A    between atoms: _347  and  _348
REMARK  141  A    between atoms: _351  and  _353
REMARK  142  A    between atoms: _353  and  _354
REMARK  143  A    between atoms: _353  and  _356
REMARK  144  A    between atoms: _356  and  _357
REMARK  145  A    between atoms: _359  and  _361
REMARK  146  A    between atoms: _361  and  _362
REMARK  147  A    between atoms: _361  and  _364
REMARK  148  A    between atoms: _364  and  _365
REMARK  149  A    between atoms: _365  and  _366
REMARK  150  A    between atoms: _369  and  _371
REMARK  151  A    between atoms: _371  and  _372
REMARK  152  A    between atoms: _371  and  _374
REMARK  153  A    between atoms: _374  and  _375
REMARK  154  A    between atoms: _380  and  _381
REMARK  155  A    between atoms: _383  and  _385
REMARK  156  A    between atoms: _385  and  _386
REMARK  157  A    between atoms: _385  and  _388
REMARK  158  A    between atoms: _388  and  _389
REMARK  159  A    between atoms: _392  and  _394
REMARK  160  A    between atoms: _394  and  _395
REMARK  161  A    between atoms: _394  and  _397
REMARK  162  A    between atoms: _397  and  _398
REMARK  163  A    between atoms: _403  and  _405
REMARK  164  A    between atoms: _405  and  _406
REMARK  165  A    between atoms: _405  and  _408
REMARK  166  A    between atoms: _408  and  _409
REMARK  167  A    between atoms: _412  and  _414
REMARK  168  A    between atoms: _414  and  _415
REMARK  169  A    between atoms: _414  and  _417
REMARK  170  A    between atoms: _417  and  _418
REMARK  171  A    between atoms: _423  and  _424
REMARK  172  A    between atoms: _426  and  _428
REMARK  173  A    between atoms: _428  and  _429
REMARK  174  A    between atoms: _428  and  _431
REMARK  175  A    between atoms: _431  and  _432
REMARK  176  A    between atoms: _432  and  _433
REMARK  177  A    between atoms: _433  and  _434
REMARK  178  A    between atoms: _443  and  _445
REMARK  179  A    between atoms: _445  and  _446
REMARK  180  A    between atoms: _445  and  _448
REMARK  181  A    between atoms: _451  and  _453
REMARK  182  A    between atoms: _453  and  _454
REMARK  183  A    between atoms: _457  and  _459
REMARK  184  A    between atoms: _459  and  _460
REMARK  185  A    between atoms: _459  and  _462
REMARK  186  A    between atoms: _465  and  _467
REMARK  187  A    between atoms: _467  and  _468
REMARK  188  A    between atoms: _467  and  _470
REMARK  189  A    between atoms: _470  and  _471
REMARK  190  A    between atoms: _473  and  _475
REMARK  191  A    between atoms: _475  and  _476
REMARK  192  A    between atoms: _475  and  _478
REMARK  193  A    between atoms: _478  and  _479
REMARK  194  A    between atoms: _479  and  _480
REMARK  195  A    between atoms: _483  and  _485
REMARK  196  A    between atoms: _485  and  _486
REMARK  197  A    between atoms: _485  and  _488
REMARK  198  A    between atoms: _488  and  _489
REMARK  199  A    between atoms: _492  and  _494
REMARK  200  A    between atoms: _494  and  _495
REMARK  201  A    between atoms: _494  and  _497
REMARK  202  A    between atoms: _497  and  _498
REMARK  203  A    between atoms: _504  and  _506
REMARK  204  A    between atoms: _506  and  _507
REMARK  205  A    between atoms: _506  and  _509
REMARK  206  A    between atoms: _509  and  _510
REMARK  207  A    between atoms: _513  and  _515
REMARK  208  A    between atoms: _515  and  _516
REMARK  209  A    between atoms: _519  and  _521
REMARK  210  A    between atoms: _521  and  _522
REMARK  211  A    between atoms: _521  and  _524
REMARK  212  A    between atoms: _524  and  _525
REMARK  213  A    between atoms: _530  and  _531
REMARK  214  A    between atoms: _533  and  _535
REMARK  215  A    between atoms: _535  and  _536
REMARK  216  A    between atoms: _535  and  _538
REMARK  217  A    between atoms: _538  and  _539
REMARK  218  A    between atoms: _541  and  _543
REMARK  219  A    between atoms: _543  and  _544
REMARK  220  A    between atoms: _543  and  _546
REMARK  221  A    between atoms: _546  and  _547
REMARK  222  A    between atoms: _550  and  _552
REMARK  223  A    between atoms: _552  and  _553
REMARK  224  A    between atoms: _552  and  _555
REMARK  225  A    between atoms: _555  and  _556
REMARK  226  A    between atoms: _558  and  _560
REMARK  227  A    between atoms: _560  and  _561
REMARK  228  A    between atoms: _560  and  _563
REMARK  229  A    between atoms: _563  and  _564
REMARK  230  A    between atoms: _567  and  _569
REMARK  231  A    between atoms: _569  and  _570
REMARK  232  A    between atoms: _569  and  _572
REMARK  233  A    between atoms: _572  and  _573
REMARK  234  A    between atoms: _575  and  _577
REMARK  235  A    between atoms: _577  and  _578
REMARK  236  A    between atoms: _577  and  _580
REMARK  237  A    between atoms: _580  and  _581
REMARK  238  A    between atoms: _584  and  _586
REMARK  239  A    between atoms: _586  and  _587
REMARK  240  A    between atoms: _586  and  _589
REMARK  241  A    between atoms: _589  and  _590
REMARK  242  A    between atoms: _595  and  _597
REMARK  243  A    between atoms: _597  and  _598
REMARK  244  A    between atoms: _597  and  _600
REMARK  245  A    between atoms: _600  and  _601
REMARK  246  A    between atoms: _603  and  _605
REMARK  247  A    between atoms: _605  and  _606
REMARK  248  A    between atoms: _605  and  _608
REMARK  249  A    between atoms: _608  and  _609
REMARK  250  A    between atoms: _615  and  _617
REMARK  251  A    between atoms: _617  and  _618
REMARK  252  A    between atoms: _617  and  _620
REMARK  253  A    between atoms: _620  and  _621
REMARK  254  A    between atoms: _623  and  _625
REMARK  255  A    between atoms: _625  and  _626
REMARK  256  A    between atoms: _625  and  _628
REMARK  257  A    between atoms: _628  and  _629
REMARK  258  A    between atoms: _635  and  _637
REMARK  259  A    between atoms: _637  and  _638
REMARK  260  A    between atoms: _637  and  _640
REMARK  261  A    between atoms: _640  and  _641
REMARK  262  A    between atoms: _643  and  _645
REMARK  263  A    between atoms: _645  and  _646
REMARK  264  A    between atoms: _645  and  _648
REMARK  265  A    between atoms: _648  and  _649
REMARK  266  A    between atoms: _654  and  _656
REMARK  267  A    between atoms: _656  and  _657
REMARK  268  A    between atoms: _656  and  _659
REMARK  269  A    between atoms: _659  and  _660
REMARK  270  A    between atoms: _663  and  _665
REMARK  271  A    between atoms: _665  and  _666
REMARK  272  A    between atoms: _665  and  _668
REMARK  273  A    between atoms: _668  and  _669
REMARK  274  A    between atoms: _672  and  _674
REMARK  275  A    between atoms: _674  and  _675
REMARK  276  A    between atoms: _674  and  _677
REMARK  277  A    between atoms: _677  and  _678
REMARK  278  A    between atoms: _678  and  _679
REMARK  279  A    between atoms: _684  and  _686
REMARK  280  A    between atoms: _686  and  _687
REMARK  281  A    between atoms: _690  and  _692
REMARK  282  A    between atoms: _692  and  _693
REMARK  283  A    between atoms: _692  and  _695
REMARK  284  A    between atoms: _698  and  _700
REMARK  285  A    between atoms: _700  and  _701
REMARK  286  A    between atoms: _700  and  _703
REMARK  287  A    between atoms: _703  and  _704
REMARK  288  A    between atoms: _707  and  _709
REMARK  289  A    between atoms: _709  and  _710
REMARK  290  A    between atoms: _709  and  _712
REMARK  291  A    between atoms: _712  and  _713
REMARK  292  A    between atoms: _713  and  _714
REMARK  293  A    between atoms: _714  and  _715
REMARK  294  A    between atoms: _724  and  _726
REMARK  295  A    between atoms: _726  and  _727
REMARK  296  A    between atoms: _726  and  _729
REMARK  297  A    between atoms: _729  and  _730
REMARK  298  A    between atoms: _730  and  _731
REMARK  299  A    between atoms: _731  and  _732
REMARK  300  A    between atoms: _732  and  _733
REMARK                            x       y       z     vdW  Elec       q    Type
REMARK                         _______ _______ _______ _____ _____    ______ ____
ROOT
ATOM      1  CA  LEU A   7      93.490   9.385  22.415  0.00  0.00    +0.149 C 
ENDROOT
BRANCH   1   2
ATOM      2  C   LEU A   7      92.212   9.560  23.234  0.00  0.00    +0.241 C 
ATOM      3  N   ILE A   8      92.336  10.156  24.425  0.00  0.00    -0.297 N 
ATOM      4  H   ILE A   8      93.275  10.451  24.760  0.00  0.00    +0.150 HD
ATOM      5  O   LEU A   7      91.131   9.188  22.783  0.00  0.00    -0.273 OA
BRANCH   3   6
ATOM      6  CA  ILE A   8      91.156  10.396  25.262  0.00  0.00    +0.149 C 
BRANCH   6   7
ATOM      7  C   ILE A   8      90.215  11.351  24.494  0.00  0.00    +0.241 C 
ATOM      8  O   ILE A   8      89.011  11.119  24.397  0.00  0.00    -0.273 OA
ATOM      9  N   GLN A   9      90.772  12.436  23.959  0.00  0.00    -0.297 N 
ATOM     10  H   GLN A   9      91.795  12.590  24.065  0.00  0.00    +0.150 HD
BRANCH   9  11
ATOM     11  CA  GLN A   9      89.969  13.417  23.223  0.00  0.00    +0.149 C 
BRANCH  11  12
ATOM     12  C   GLN A   9      89.222  12.783  22.053  0.00  0.00    +0.241 C 
ATOM     13  O   GLN A   9      88.037  13.067  21.818  0.00  0.00    -0.273 OA
ATOM     14  N   ALA A  10      89.944  11.981  21.276  0.00  0.00    -0.297 N 
ATOM     15  H   ALA A  10      90.920  11.749  21.549  0.00  0.00    +0.150 HD
BRANCH  14  16
ATOM     16  CA  ALA A  10      89.389  11.418  20.042  0.00  0.00    +0.149 C 
ATOM     17  CB  ALA A  10      90.496  10.773  19.211  0.00  0.00    +0.031 C 
BRANCH  16  18
ATOM     18  C   ALA A  10      88.273  10.418  20.311  0.00  0.00    +0.241 C 
ATOM     19  N   VAL A  11      88.484   9.515  21.264  0.00  0.00    -0.297 N 
ATOM     20  H   VAL A  11      89.372   9.537  21.805  0.00  0.00    +0.150 HD
ATOM     21  O   ALA A  10      87.247  10.427  19.623  0.00  0.00    -0.273 OA
BRANCH  19  22
ATOM     22  CA  VAL A  11      87.484   8.492  21.560  0.00  0.00    +0.149 C 
BRANCH  22  23
ATOM     23  C   VAL A  11      86.209   9.048  22.250  0.00  0.00    +0.241 C 
ATOM     24  N   THR A  12      86.329  10.190  22.928  0.00  0.00    -0.295 N 
ATOM     25  H   THR A  12      87.232  10.707  22.932  0.00  0.00    +0.150 HD
ATOM     26  O   VAL A  11      85.118   8.445  22.160  0.00  0.00    -0.273 OA
BRANCH  24  27
ATOM     27  CA  THR A  12      85.188  10.703  23.659  0.00  0.00    +0.176 C 
BRANCH  27  28
ATOM     28  C   THR A  12      84.437  11.816  22.928  0.00  0.00    +0.243 C 
ATOM     29  O   THR A  12      83.364  12.216  23.370  0.00  0.00    -0.273 OA
ATOM     30  N   ARG A  13      84.987  12.360  21.840  0.00  0.00    -0.298 N 
ATOM     31  H   ARG A  13      85.801  11.921  21.365  0.00  0.00    +0.150 HD
BRANCH  30  32
ATOM     32  CA  ARG A  13      84.387  13.612  21.342  0.00  0.00    +0.137 C 
BRANCH  32  33
ATOM     33  C   ARG A  13      83.026  13.400  20.668  0.00  0.00    +0.227 C 
ATOM     34  O   ARG A  13      82.274  14.344  20.563  0.00  0.00    -0.286 OA
ENDBRANCH  32  33
BRANCH  32  35
ATOM     35  CB  ARG A  13      85.322  14.404  20.414  0.00  0.00    +0.031 C 
BRANCH  35  36
ATOM     36  CG  ARG A  13      85.911  13.589  19.296  0.00  0.00    +0.045 C 
BRANCH  36  37
ATOM     37  CD  ARG A  13      86.903  14.482  18.547  0.00  0.00    +0.174 C 
BRANCH  37  38
ATOM     38  NE  ARG A  13      87.696  13.711  17.604  0.00  0.00    -0.265 N 
ATOM     39  HE  ARG A  13      87.334  12.783  17.305  0.00  0.00    +0.259 HD
ATOM     40  CZ  ARG A  13      88.862  14.123  17.098  0.00  0.00    +0.342 C 
ATOM     41  NH2 ARG A  13      89.350  15.308  17.441  0.00  0.00    -0.292 N 
ATOM     42 HH21 ARG A  13      88.825  15.915  18.103  0.00  0.00    +0.255 HD
ATOM     43 HH22 ARG A  13      90.257  15.630  17.048  0.00  0.00    +0.255 HD
ATOM     44  NH1 ARG A  13      89.546  13.350  16.244  0.00  0.00    -0.292 N 
ATOM     45 HH11 ARG A  13      89.170  12.420  15.969  0.00  0.00    +0.255 HD
ATOM     46 HH12 ARG A  13      90.453  13.680  15.856  0.00  0.00    +0.255 HD
ENDBRANCH  37  38
ENDBRANCH  36  37
ENDBRANCH  35  36
ENDBRANCH  32  35
ENDBRANCH  30  32
ENDBRANCH  27  28
BRANCH  27  47
ATOM     47  CB  THR A  12      85.621  11.270  25.045  0.00  0.00    +0.137 C 
ATOM     48  CG2 THR A  12      86.262  10.171  25.900  0.00  0.00    +0.034 C 
BRANCH  47  49
ATOM     49  OG1 THR A  12      86.581  12.315  24.840  0.00  0.00    -0.382 OA
ATOM     50  HG1 THR A  12      87.370  11.949  24.366  0.00  0.00    +0.210 HD
ENDBRANCH  47  49
ENDBRANCH  27  47
ENDBRANCH  24  27
ENDBRANCH  22  23
BRANCH  22  51
ATOM     51  CB  VAL A  11      88.128   7.310  22.355  0.00  0.00    +0.027 C 
ATOM     52  CG2 VAL A  11      88.312   7.645  23.838  0.00  0.00    +0.002 C 
ATOM     53  CG1 VAL A  11      87.338   6.014  22.147  0.00  0.00    +0.002 C 
ENDBRANCH  22  51
ENDBRANCH  19  22
ENDBRANCH  16  18
ENDBRANCH  14  16
ENDBRANCH  11  12
BRANCH  11  54
ATOM     54  CB  GLN A   9      90.888  14.465  22.631  0.00  0.00    +0.039 C 
BRANCH  54  55
ATOM     55  CG  GLN A   9      90.757  15.868  23.165  0.00  0.00    +0.087 C 
BRANCH  55  56
ATOM     56  CD  GLN A   9      91.746  16.783  22.466  0.00  0.00    +0.219 C 
ATOM     57  NE2 GLN A   9      93.018  16.679  22.849  0.00  0.00    -0.329 N 
ATOM     58 HE21 GLN A   9      93.276  16.039  23.627  0.00  0.00    +0.145 HD
ATOM     59 HE22 GLN A   9      93.753  17.238  22.370  0.00  0.00    +0.145 HD
ATOM     60  OE1 GLN A   9      91.381  17.527  21.549  0.00  0.00    -0.275 OA
ENDBRANCH  55  56
ENDBRANCH  54  55
ENDBRANCH  11  54
ENDBRANCH   9  11
ENDBRANCH   6   7
BRANCH   6  61
ATOM     61  CB  ILE A   8      91.547  11.020  26.633  0.00  0.00    +0.027 C 
ATOM     62  CG2 ILE A   8      90.301  11.536  27.354  0.00  0.00    +0.002 C 
BRANCH  61  63
ATOM     63  CG1 ILE A   8      92.331  10.002  27.485  0.00  0.00    +0.002 C 
ATOM     64  CD1 ILE A   8      93.130  10.635  28.614  0.00  0.00    +0.000 C 
ENDBRANCH  61  63
ENDBRANCH   6  61
ENDBRANCH   3   6
ENDBRANCH   1   2
BRANCH   1  66
ATOM     65  C   ASN A   6      93.955  11.703  21.874  0.00  0.00    +0.241 C 
ATOM     66  N   LEU A   7      94.318  10.582  22.472  0.00  0.00    -0.297 N 
ATOM     67  H   LEU A   7      95.216  10.554  22.996  0.00  0.00    +0.150 HD
ATOM     68  O   ASN A   6      92.889  11.823  21.282  0.00  0.00    -0.273 OA
BRANCH  65  69
ATOM     69  CA  ASN A   6      94.948  12.868  21.943  0.00  0.00    +0.158 C 
BRANCH  69  72
ATOM     70  C   SER A   5      94.767  13.170  24.385  0.00  0.00    +0.243 C 
ATOM     71  O   SER A   5      93.540  13.160  24.349  0.00  0.00    -0.273 OA
ATOM     72  N   ASN A   6      95.531  12.994  23.287  0.00  0.00    -0.297 N 
ATOM     73  H   ASN A   6      96.564  12.946  23.395  0.00  0.00    +0.150 HD
BRANCH  70  74
ATOM     74  CA  SER A   5      95.478  13.421  25.748  0.00  0.00    +0.178 C 
BRANCH  74  76
ATOM     75  C   PHE A   4      96.943  11.486  25.604  0.00  0.00    +0.241 C 
ATOM     76  N   SER A   5      96.787  12.792  25.848  0.00  0.00    -0.295 N 
ATOM     77  H   SER A   5      97.613  13.366  26.113  0.00  0.00    +0.150 HD
ATOM     78  O   PHE A   4      95.979  10.718  25.410  0.00  0.00    -0.273 OA
BRANCH  75  79
ATOM     79  CA  PHE A   4      98.398  10.983  25.503  0.00  0.00    +0.153 C 
BRANCH  79  81
ATOM     80  C   SER A   3      99.112  12.614  23.790  0.00  0.00    +0.243 C 
ATOM     81  N   PHE A   4      99.285  12.058  24.994  0.00  0.00    -0.297 N 
ATOM     82  H   PHE A   4     100.067  12.390  25.593  0.00  0.00    +0.150 HD
ATOM     83  O   SER A   3      98.281  12.201  22.979  0.00  0.00    -0.273 OA
BRANCH  80  84
ATOM     84  CA  SER A   3      99.966  13.848  23.451  0.00  0.00    +0.178 C 
BRANCH  84  86
ATOM     85  C   PHE A   2     102.169  13.321  24.409  0.00  0.00    +0.241 C 
ATOM     86  N   SER A   3     101.111  14.127  24.351  0.00  0.00    -0.295 N 
ATOM     87  H   SER A   3     101.087  14.975  24.953  0.00  0.00    +0.150 HD
ATOM     88  O   PHE A   2     102.182  12.182  23.941  0.00  0.00    -0.273 OA
BRANCH  85  89
ATOM     89  CA  PHE A   2     103.421  13.870  25.097  0.00  0.00    +0.153 C 
BRANCH  89  92
ATOM     90  C   SER A   1     103.440  12.190  26.911  0.00  0.00    +0.241 C 
ATOM     91  O   SER A   1     102.236  12.340  27.177  0.00  0.00    -0.274 OA
ATOM     92  N   PHE A   2     104.065  12.839  25.926  0.00  0.00    -0.297 N 
ATOM     93  H   PHE A   2     105.060  12.603  25.734  0.00  0.00    +0.150 HD
BRANCH  90  94
ATOM     94  CA  SER A   1     104.314  11.239  27.751  0.00  0.00    +0.174 C 
BRANCH  94  95
ATOM     95  N   SER A   1     103.549  10.541  28.777  0.00  0.00    -0.236 NA
ATOM     96  H   SER A   1     102.837   9.838  28.493  0.00  0.00    +0.142 HD
ENDBRANCH  94  95
BRANCH  94  97
ATOM     97  CB  SER A   1     105.081  10.245  26.852  0.00  0.00    +0.163 C 
BRANCH  97  98
ATOM     98  OG  SER A   1     105.931  10.959  25.950  0.00  0.00    -0.380 OA
ATOM     99  H   SER A   1     106.580  11.499  26.467  0.00  0.00    +0.211 HD
ENDBRANCH  97  98
ENDBRANCH  94  97
ENDBRANCH  90  94
ENDBRANCH  89  92
BRANCH  89 100
ATOM    100  CB  PHE A   2     104.401  14.346  24.005  0.00  0.00    +0.055 C 
BRANCH 100 101
ATOM    101  CG  PHE A   2     105.738  14.808  24.545  0.00  0.00    -0.020 A 
ATOM    102  CD2 PHE A   2     105.800  15.782  25.547  0.00  0.00    -0.004 A 
ATOM    103  CE2 PHE A   2     107.024  16.206  26.052  0.00  0.00    -0.000 A 
ATOM    104  CZ  PHE A   2     108.202  15.687  25.532  0.00  0.00    -0.000 A 
ATOM    105  CE1 PHE A   2     108.162  14.699  24.550  0.00  0.00    -0.000 A 
ATOM    106  CD1 PHE A   2     106.937  14.269  24.051  0.00  0.00    -0.004 A 
ENDBRANCH 100 101
ENDBRANCH  89 100
ENDBRANCH  85  89
ENDBRANCH  84  86
BRANCH  84 107
ATOM    107  CB  SER A   3     100.448  13.788  21.994  0.00  0.00    +0.166 C 
BRANCH 107 108
ATOM    108  OG  SER A   3     101.170  14.975  21.699  0.00  0.00    -0.380 OA
ATOM    109  H   SER A   3     100.579  15.759  21.825  0.00  0.00    +0.211 HD
ENDBRANCH 107 108
ENDBRANCH  84 107
ENDBRANCH  80  84
ENDBRANCH  79  81
BRANCH  79 110
ATOM    110  CB  PHE A   4      98.920  10.465  26.855  0.00  0.00    +0.055 C 
BRANCH 110 111
ATOM    111  CG  PHE A   4      98.252   9.184  27.334  0.00  0.00    -0.020 A 
ATOM    112  CD2 PHE A   4      97.401   9.203  28.430  0.00  0.00    -0.004 A 
ATOM    113  CE2 PHE A   4      96.801   8.033  28.889  0.00  0.00    -0.000 A 
ATOM    114  CZ  PHE A   4      97.035   6.827  28.231  0.00  0.00    -0.000 A 
ATOM    115  CE1 PHE A   4      97.864   6.795  27.117  0.00  0.00    -0.000 A 
ATOM    116  CD1 PHE A   4      98.486   7.966  26.686  0.00  0.00    -0.004 A 
ENDBRANCH 110 111
ENDBRANCH  79 110
ENDBRANCH  75  79
ENDBRANCH  74  76
BRANCH  74 117
ATOM    117  CB  SER A   5      95.586  14.922  25.998  0.00  0.00    +0.166 C 
BRANCH 117 118
ATOM    118  OG  SER A   5      96.269  15.541  24.901  0.00  0.00    -0.380 OA
ATOM    119  H   SER A   5      96.338  16.515  25.064  0.00  0.00    +0.211 HD
ENDBRANCH 117 118
ENDBRANCH  74 117
ENDBRANCH  70  74
ENDBRANCH  69  72
BRANCH  69 120
ATOM    120  CB  ASN A   6      96.026  12.698  20.835  0.00  0.00    +0.114 C 
BRANCH 120 121
ATOM    121  CG  ASN A   6      96.820  13.988  20.554  0.00  0.00    +0.222 C 
ATOM    122  OD1 ASN A   6      96.627  15.007  21.200  0.00  0.00    -0.275 OA
ATOM    123  ND2 ASN A   6      97.709  13.933  19.575  0.00  0.00    -0.329 N 
ATOM    124 HD21 ASN A   6      98.270  14.775  19.334  0.00  0.00    +0.145 HD
ATOM    125 HD22 ASN A   6      97.846  13.048  19.046  0.00  0.00    +0.145 HD
ENDBRANCH 120 121
ENDBRANCH  69 120
ENDBRANCH  65  69
ENDBRANCH   1  66
BRANCH   1 126
ATOM    126  CB  LEU A   7      94.266   8.185  22.944  0.00  0.00    +0.029 C 
BRANCH 126 127
ATOM    127  CG  LEU A   7      93.545   6.843  23.048  0.00  0.00    +0.002 C 
ATOM    128  CD2 LEU A   7      94.511   5.794  23.570  0.00  0.00    +0.000 C 
ATOM    129  CD1 LEU A   7      92.938   6.405  21.731  0.00  0.00    +0.000 C 
ENDBRANCH 126 127
ENDBRANCH   1 126
TORSDOF 52
REMARK  Name = ../refined-set-2016/4fys/4fys_pocket.pdb
REMARK  300 active torsions:
REMARK  status: ('A' for Active; 'I' for Inactive)
REMARK    1  A    between atoms: _1  and  _3
REMARK    2  A    between atoms: _3  and  _4
REMARK    3  A    between atoms: _3  and  _6
REMARK    4  A    between atoms: _6  and  _7
REMARK    5  A    between atoms: _7  and  _8
REMARK    6  A    between atoms: _13  and  _15
REMARK    7  A    between atoms: _15  and  _16
REMARK    8  A    between atoms: _15  and  _18
REMARK    9  A    between atoms: _18  and  _19
REMARK   10  A    between atoms: _19  and  _20
REMARK   11  A    between atoms: _22  and  _24
REMARK   12  A    between atoms: _24  and  _25
REMARK   13  A    between atoms: _24  and  _27
REMARK   14  A    between atoms: _27  and  _28
REMARK   15  A    between atoms: _28  and  _29
REMARK   16  A    between atoms: _34  and  _36
REMARK   17  A    between atoms: _36  and  _37
REMARK   18  A    between atoms: _40  and  _42
REMARK   19  A    between atoms: _42  and  _43
REMARK   20  A    between atoms: _42  and  _45
REMARK   21  A    between atoms: _45  and  _46
REMARK   22  A    between atoms: _51  and  _52
REMARK   23  A    between atoms: _54  and  _56
REMARK   24  A    between atoms: _56  and  _57
REMARK   25  A    between atoms: _56  and  _59
REMARK   26  A    between atoms: _59  and  _60
REMARK   27  A    between atoms: _63  and  _65
REMARK   28  A    between atoms: _65  and  _66
REMARK   29  A    between atoms: _65  and  _68
REMARK   30  A    between atoms: _68  and  _69
REMARK   31  A    between atoms: _75  and  _77
REMARK   32  A    between atoms: _77  and  _78
REMARK   33  A    between atoms: _77  and  _80
REMARK   34  A    between atoms: _80  and  _81
REMARK   35  A    between atoms: _86  and  _88
REMARK   36  A    between atoms: _88  and  _89
REMARK   37  A    between atoms: _92  and  _94
REMARK   38  A    between atoms: _94  and  _95
REMARK   39  A    between atoms: _97  and  _99
REMARK   40  A    between atoms: _99  and  _100
REMARK   41  A    between atoms: _103  and  _105
REMARK   42  A    between atoms: _105  and  _106
REMARK   43  A    between atoms: _105  and  _108
REMARK   44  A    between atoms: _108  and  _109
REMARK   45  A    between atoms: _109  and  _110
REMARK   46  A    between atoms: _112  and  _114
REMARK   47  A    between atoms: _114  and  _115
REMARK   48  A    between atoms: _114  and  _117
REMARK   49  A    between atoms: _117  and  _118
REMARK   50  A    between atoms: _118  and  _119
REMARK   51  A    between atoms: _122  and  _124
REMARK   52  A    between atoms: _124  and  _125
REMARK   53  A    between atoms: _124  and  _127
REMARK   54  A    between atoms: _127  and  _128
REMARK   55  A    between atoms: _133  and  _135
REMARK   56  A    between atoms: _135  and  _136
REMARK   57  A    between atoms: _135  and  _138
REMARK   58  A    between atoms: _138  and  _139
REMARK   59  A    between atoms: _142  and  _144
REMARK   60  A    between atoms: _144  and  _145
REMARK   61  A    between atoms: _144  and  _147
REMARK   62  A    between atoms: _147  and  _148
REMARK   63  A    between atoms: _153  and  _154
REMARK   64  A    between atoms: _156  and  _158
REMARK   65  A    between atoms: _158  and  _159
REMARK   66  A    between atoms: _158  and  _161
REMARK   67  A    between atoms: _161  and  _162
REMARK   68  A    between atoms: _162  and  _163
REMARK   69  A    between atoms: _163  and  _164
REMARK   70  A    between atoms: _173  and  _175
REMARK   71  A    between atoms: _175  and  _176
REMARK   72  A    between atoms: _175  and  _178
REMARK   73  A    between atoms: _178  and  _179
REMARK   74  A    between atoms: _184  and  _186
REMARK   75  A    between atoms: _186  and  _187
REMARK   76  A    between atoms: _186  and  _189
REMARK   77  A    between atoms: _189  and  _190
REMARK   78  A    between atoms: _192  and  _194
REMARK   79  A    between atoms: _194  and  _195
REMARK   80  A    between atoms: _194  and  _197
REMARK   81  A    between atoms: _197  and  _198
REMARK   82  A    between atoms: _200  and  _202
REMARK   83  A    between atoms: _202  and  _203
REMARK   84  A    between atoms: _202  and  _205
REMARK   85  A    between atoms: _205  and  _206
REMARK   86  A    between atoms: _206  and  _207
REMARK   87  A    between atoms: _210  and  _212
REMARK   88  A    between atoms: _212  and  _213
REMARK   89  A    between atoms: _212  and  _215
REMARK   90  A    between atoms: _215  and  _216
REMARK   91  A    between atoms: _216  and  _217
REMARK   92  A    between atoms: _217  and  _218
REMARK   93  A    between atoms: _227  and  _229
REMARK   94  A    between atoms: _229  and  _230
REMARK   95  A    between atoms: _229  and  _232
REMARK   96  A    between atoms: _235  and  _237
REMARK   97  A    between atoms: _237  and  _238
REMARK   98  A    between atoms: _237  and  _240
REMARK   99  A    between atoms: _240  and  _241
REMARK  100  A    between atoms: _244  and  _246
REMARK  101  A    between atoms: _246  and  _247
REMARK  102  A    between atoms: _246  and  _249
REMARK  103  A    between atoms: _252  and  _254
REMARK  104  A    between atoms: _254  and  _255
REMARK  105  A    between atoms: _254  and  _257
REMARK  106  A    between atoms: _257  and  _258
REMARK  107  A    between atoms: _261  and  _263
REMARK  108  A    between atoms: _263  and  _264
REMARK  109  A    between atoms: _267  and  _269
REMARK  110  A    between atoms: _269  and  _270
REMARK  111  A    between atoms: _269  and  _272
REMARK  112  A    between atoms: _272  and  _273
REMARK  113  A    between atoms: _278  and  _280
REMARK  114  A    between atoms: _280  and  _281
REMARK  115  A    between atoms: _280  and  _283
REMARK  116  A    between atoms: _283  and  _284
REMARK  117  A    between atoms: _284  and  _285
REMARK  118  A    between atoms: _288  and  _290
REMARK  119  A    between atoms: _290  and  _291
REMARK  120  A    between atoms: _290  and  _293
REMARK  121  A    between atoms: _293  and  _294
REMARK  122  A    between atoms: _299  and  _301
REMARK  123  A    between atoms: _301  and  _302
REMARK  124  A    between atoms: _301  and  _304
REMARK  125  A    between atoms: _304  and  _305
REMARK  126  A    between atoms: _315  and  _317
REMARK  127  A    between atoms: _317  and  _318
REMARK  128  A    between atoms: _317  and  _320
REMARK  129  A    between atoms: _320  and  _321
REMARK  130  A    between atoms: _324  and  _326
REMARK  131  A    between atoms: _326  and  _327
REMARK  132  A    between atoms: _326  and  _329
REMARK  133  A    between atoms: _329  and  _330
REMARK  134  A    between atoms: _335  and  _337
REMARK  135  A    between atoms: _337  and  _338
REMARK  136  A    between atoms: _337  and  _340
REMARK  137  A    between atoms: _340  and  _341
REMARK  138  A    between atoms: _341  and  _342
REMARK  139  A    between atoms: _345  and  _347
REMARK  140  A    between atoms: _347  and  _348
REMARK  141  A    between atoms: _351  and  _353
REMARK  142  A    between atoms: _353  and  _354
REMARK  143  A    between atoms: _353  and  _356
REMARK  144  A    between atoms: _356  and  _357
REMARK  145  A    between atoms: _359  and  _361
REMARK  146  A    between atoms: _361  and  _362
REMARK  147  A    between atoms: _361  and  _364
REMARK  148  A    between atoms: _364  and  _365
REMARK  149  A    between atoms: _365  and  _366
REMARK  150  A    between atoms: _369  and  _371
REMARK  151  A    between atoms: _371  and  _372
REMARK  152  A    between atoms: _371  and  _374
REMARK  153  A    between atoms: _374  and  _375
REMARK  154  A    between atoms: _380  and  _381
REMARK  155  A    between atoms: _383  and  _385
REMARK  156  A    between atoms: _385  and  _386
REMARK  157  A    between atoms: _385  and  _388
REMARK  158  A    between atoms: _388  and  _389
REMARK  159  A    between atoms: _392  and  _394
REMARK  160  A    between atoms: _394  and  _395
REMARK  161  A    between atoms: _394  and  _397
REMARK  162  A    between atoms: _397  and  _398
REMARK  163  A    between atoms: _403  and  _405
REMARK  164  A    between atoms: _405  and  _406
REMARK  165  A    between atoms: _405  and  _408
REMARK  166  A    between atoms: _408  and  _409
REMARK  167  A    between atoms: _412  and  _414
REMARK  168  A    between atoms: _414  and  _415
REMARK  169  A    between atoms: _414  and  _417
REMARK  170  A    between atoms: _417  and  _418
REMARK  171  A    between atoms: _423  and  _424
REMARK  172  A    between atoms: _426  and  _428
REMARK  173  A    between atoms: _428  and  _429
REMARK  174  A    between atoms: _428  and  _431
REMARK  175  A    between atoms: _431  and  _432
REMARK  176  A    between atoms: _432  and  _433
REMARK  177  A    between atoms: _433  and  _434
REMARK  178  A    between atoms: _443  and  _445
REMARK  179  A    between atoms: _445  and  _446
REMARK  180  A    between atoms: _445  and  _448
REMARK  181  A    between atoms: _451  and  _453
REMARK  182  A    between atoms: _453  and  _454
REMARK  183  A    between atoms: _457  and  _459
REMARK  184  A    between atoms: _459  and  _460
REMARK  185  A    between atoms: _459  and  _462
REMARK  186  A    between atoms: _465  and  _467
REMARK  187  A    between atoms: _467  and  _468
REMARK  188  A    between atoms: _467  and  _470
REMARK  189  A    between atoms: _470  and  _471
REMARK  190  A    between atoms: _473  and  _475
REMARK  191  A    between atoms: _475  and  _476
REMARK  192  A    between atoms: _475  and  _478
REMARK  193  A    between atoms: _478  and  _479
REMARK  194  A    between atoms: _479  and  _480
REMARK  195  A    between atoms: _483  and  _485
REMARK  196  A    between atoms: _485  and  _486
REMARK  197  A    between atoms: _485  and  _488
REMARK  198  A    between atoms: _488  and  _489
REMARK  199  A    between atoms: _492  and  _494
REMARK  200  A    between atoms: _494  and  _495
REMARK  201  A    between atoms: _494  and  _497
REMARK  202  A    between atoms: _497  and  _498
REMARK  203  A    between atoms: _504  and  _506
REMARK  204  A    between atoms: _506  and  _507
REMARK  205  A    between atoms: _506  and  _509
REMARK  206  A    between atoms: _509  and  _510
REMARK  207  A    between atoms: _513  and  _515
REMARK  208  A    between atoms: _515  and  _516
REMARK  209  A    between atoms: _519  and  _521
REMARK  210  A    between atoms: _521  and  _522
REMARK  211  A    between atoms: _521  and  _524
REMARK  212  A    between atoms: _524  and  _525
REMARK  213  A    between atoms: _530  and  _531
REMARK  214  A    between atoms: _533  and  _535
REMARK  215  A    between atoms: _535  and  _536
REMARK  216  A    between atoms: _535  and  _538
REMARK  217  A    between atoms: _538  and  _539
REMARK  218  A    between atoms: _541  and  _543
REMARK  219  A    between atoms: _543  and  _544
REMARK  220  A    between atoms: _543  and  _546
REMARK  221  A    between atoms: _546  and  _547
REMARK  222  A    between atoms: _550  and  _552
REMARK  223  A    between atoms: _552  and  _553
REMARK  224  A    between atoms: _552  and  _555
REMARK  225  A    between atoms: _555  and  _556
REMARK  226  A    between atoms: _558  and  _560
REMARK  227  A    between atoms: _560  and  _561
REMARK  228  A    between atoms: _560  and  _563
REMARK  229  A    between atoms: _563  and  _564
REMARK  230  A    between atoms: _567  and  _569
REMARK  231  A    between atoms: _569  and  _570
REMARK  232  A    between atoms: _569  and  _572
REMARK  233  A    between atoms: _572  and  _573
REMARK  234  A    between atoms: _575  and  _577
REMARK  235  A    between atoms: _577  and  _578
REMARK  236  A    between atoms: _577  and  _580
REMARK  237  A    between atoms: _580  and  _581
REMARK  238  A    between atoms: _584  and  _586
REMARK  239  A    between atoms: _586  and  _587
REMARK  240  A    between atoms: _586  and  _589
REMARK  241  A    between atoms: _589  and  _590
REMARK  242  A    between atoms: _595  and  _597
REMARK  243  A    between atoms: _597  and  _598
REMARK  244  A    between atoms: _597  and  _600
REMARK  245  A    between atoms: _600  and  _601
REMARK  246  A    between atoms: _603  and  _605
REMARK  247  A    between atoms: _605  and  _606
REMARK  248  A    between atoms: _605  and  _608
REMARK  249  A    between atoms: _608  and  _609
REMARK  250  A    between atoms: _615  and  _617
REMARK  251  A    between atoms: _617  and  _618
REMARK  252  A    between atoms: _617  and  _620
REMARK  253  A    between atoms: _620  and  _621
REMARK  254  A    between atoms: _623  and  _625
REMARK  255  A    between atoms: _625  and  _626
REMARK  256  A    between atoms: _625  and  _628
REMARK  257  A    between atoms: _628  and  _629
REMARK  258  A    between atoms: _635  and  _637
REMARK  259  A    between atoms: _637  and  _638
REMARK  260  A    between atoms: _637  and  _640
REMARK  261  A    between atoms: _640  and  _641
REMARK  262  A    between atoms: _643  and  _645
REMARK  263  A    between atoms: _645  and  _646
REMARK  264  A    between atoms: _645  and  _648
REMARK  265  A    between atoms: _648  and  _649
REMARK  266  A    between atoms: _654  and  _656
REMARK  267  A    between atoms: _656  and  _657
REMARK  268  A    between atoms: _656  and  _659
REMARK  269  A    between atoms: _659  and  _660
REMARK  270  A    between atoms: _663  and  _665
REMARK  271  A    between atoms: _665  and  _666
REMARK  272  A    between atoms: _665  and  _668
REMARK  273  A    between atoms: _668  and  _669
REMARK  274  A    between atoms: _672  and  _674
REMARK  275  A    between atoms: _674  and  _675
REMARK  276  A    between atoms: _674  and  _677
REMARK  277  A    between atoms: _677  and  _678
REMARK  278  A    between atoms: _678  and  _679
REMARK  279  A    between atoms: _684  and  _686
REMARK  280  A    between atoms: _686  and  _687
REMARK  281  A    between atoms: _690  and  _692
REMARK  282  A    between atoms: _692  and  _693
REMARK  283  A    between atoms: _692  and  _695
REMARK  284  A    between atoms: _698  and  _700
REMARK  285  A    between atoms: _700  and  _701
REMARK  286  A    between atoms: _700  and  _703
REMARK  287  A    between atoms: _703  and  _704
REMARK  288  A    between atoms: _707  and  _709
REMARK  289  A    between atoms: _709  and  _710
REMARK  290  A    between atoms: _709  and  _712
REMARK  291  A    between atoms: _712  and  _713
REMARK  292  A    between atoms: _713  and  _714
REMARK  293  A    between atoms: _714  and  _715
REMARK  294  A    between atoms: _724  and  _726
REMARK  295  A    between atoms: _726  and  _727
REMARK  296  A    between atoms: _726  and  _729
REMARK  297  A    between atoms: _729  and  _730
REMARK  298  A    between atoms: _730  and  _731
REMARK  299  A    between atoms: _731  and  _732
REMARK  300  A    between atoms: _732  and  _733
REMARK                            x       y       z     vdW  Elec       q    Type
REMARK                         _______ _______ _______ _____ _____    ______ ____
ROOT
ATOM      1  CG  LYS A   1      84.252  19.307  25.652  0.00  0.00    -0.000 C 
ENDROOT
BRANCH   1   2
ATOM      2  CB  LYS A   1      83.321  18.127  25.900  0.00  0.00    +0.025 C 
BRANCH   2   3
ATOM      3  CA  LYS A   1      82.214  18.507  26.900  0.00  0.00    +0.133 C 
BRANCH   3   4
ATOM      4  N   LYS A   1      82.728  18.460  28.262  0.00  0.00    -0.239 NA
ATOM      5  H   LYS A   1      83.701  18.132  28.426  0.00  0.00    +0.142 HD
ENDBRANCH   3   4
BRANCH   3   6
ATOM      6  C   LYS A   1      81.031  17.570  26.736  0.00  0.00    +0.224 C 
ATOM      7  O   LYS A   1      80.069  17.903  26.068  0.00  0.00    -0.287 OA
ENDBRANCH   3   6
ENDBRANCH   2   3
ENDBRANCH   1   2
BRANCH   1   8
ATOM      8  CD  LYS A   1      85.150  19.111  24.439  0.00  0.00    -0.024 C 
BRANCH   8   9
ATOM      9  CE  LYS A   1      86.369  18.284  24.775  0.00  0.00    -0.086 C 
BRANCH   9  10
ATOM     10  NZ  LYS A   1      87.316  18.295  23.617  0.00  0.00    +0.380 N 
ATOM     11  HZ1 LYS A   1      88.154  17.725  23.851  0.00  0.00    -0.089 HD
ATOM     12  HZ2 LYS A   1      87.605  19.274  23.417  0.00  0.00    -0.089 HD
ATOM     13  HZ3 LYS A   1      86.845  17.894  22.781  0.00  0.00    -0.089 HD
ENDBRANCH   9  10
ENDBRANCH   8   9
ENDBRANCH   1   8
TORSDOF 7
REMARK  Name = ../refined-set-2016/4fys/4fys_pocket.pdb
REMARK  300 active torsions:
REMARK  status: ('A' for Active; 'I' for Inactive)
REMARK    1  A    between atoms: _1  and  _3
REMARK    2  A    between atoms: _3  and  _4
REMARK    3  A    between atoms: _3  and  _6
REMARK    4  A    between atoms: _6  and  _7
REMARK    5  A    between atoms: _7  and  _8
REMARK    6  A    between atoms: _13  and  _15
REMARK    7  A    between atoms: _15  and  _16
REMARK    8  A    between atoms: _15  and  _18
REMARK    9  A    between atoms: _18  and  _19
REMARK   10  A    between atoms: _19  and  _20
REMARK   11  A    between atoms: _22  and  _24
REMARK   12  A    between atoms: _24  and  _25
REMARK   13  A    between atoms: _24  and  _27
REMARK   14  A    between atoms: _27  and  _28
REMARK   15  A    between atoms: _28  and  _29
REMARK   16  A    between atoms: _34  and  _36
REMARK   17  A    between atoms: _36  and  _37
REMARK   18  A    between atoms: _40  and  _42
REMARK   19  A    between atoms: _42  and  _43
REMARK   20  A    between atoms: _42  and  _45
REMARK   21  A    between atoms: _45  and  _46
REMARK   22  A    between atoms: _51  and  _52
REMARK   23  A    between atoms: _54  and  _56
REMARK   24  A    between atoms: _56  and  _57
REMARK   25  A    between atoms: _56  and  _59
REMARK   26  A    between atoms: _59  and  _60
REMARK   27  A    between atoms: _63  and  _65
REMARK   28  A    between atoms: _65  and  _66
REMARK   29  A    between atoms: _65  and  _68
REMARK   30  A    between atoms: _68  and  _69
REMARK   31  A    between atoms: _75  and  _77
REMARK   32  A    between atoms: _77  and  _78
REMARK   33  A    between atoms: _77  and  _80
REMARK   34  A    between atoms: _80  and  _81
REMARK   35  A    between atoms: _86  and  _88
REMARK   36  A    between atoms: _88  and  _89
REMARK   37  A    between atoms: _92  and  _94
REMARK   38  A    between atoms: _94  and  _95
REMARK   39  A    between atoms: _97  and  _99
REMARK   40  A    between atoms: _99  and  _100
REMARK   41  A    between atoms: _103  and  _105
REMARK   42  A    between atoms: _105  and  _106
REMARK   43  A    between atoms: _105  and  _108
REMARK   44  A    between atoms: _108  and  _109
REMARK   45  A    between atoms: _109  and  _110
REMARK   46  A    between atoms: _112  and  _114
REMARK   47  A    between atoms: _114  and  _115
REMARK   48  A    between atoms: _114  and  _117
REMARK   49  A    between atoms: _117  and  _118
REMARK   50  A    between atoms: _118  and  _119
REMARK   51  A    between atoms: _122  and  _124
REMARK   52  A    between atoms: _124  and  _125
REMARK   53  A    between atoms: _124  and  _127
REMARK   54  A    between atoms: _127  and  _128
REMARK   55  A    between atoms: _133  and  _135
REMARK   56  A    between atoms: _135  and  _136
REMARK   57  A    between atoms: _135  and  _138
REMARK   58  A    between atoms: _138  and  _139
REMARK   59  A    between atoms: _142  and  _144
REMARK   60  A    between atoms: _144  and  _145
REMARK   61  A    between atoms: _144  and  _147
REMARK   62  A    between atoms: _147  and  _148
REMARK   63  A    between atoms: _153  and  _154
REMARK   64  A    between atoms: _156  and  _158
REMARK   65  A    between atoms: _158  and  _159
REMARK   66  A    between atoms: _158  and  _161
REMARK   67  A    between atoms: _161  and  _162
REMARK   68  A    between atoms: _162  and  _163
REMARK   69  A    between atoms: _163  and  _164
REMARK   70  A    between atoms: _173  and  _175
REMARK   71  A    between atoms: _175  and  _176
REMARK   72  A    between atoms: _175  and  _178
REMARK   73  A    between atoms: _178  and  _179
REMARK   74  A    between atoms: _184  and  _186
REMARK   75  A    between atoms: _186  and  _187
REMARK   76  A    between atoms: _186  and  _189
REMARK   77  A    between atoms: _189  and  _190
REMARK   78  A    between atoms: _192  and  _194
REMARK   79  A    between atoms: _194  and  _195
REMARK   80  A    between atoms: _194  and  _197
REMARK   81  A    between atoms: _197  and  _198
REMARK   82  A    between atoms: _200  and  _202
REMARK   83  A    between atoms: _202  and  _203
REMARK   84  A    between atoms: _202  and  _205
REMARK   85  A    between atoms: _205  and  _206
REMARK   86  A    between atoms: _206  and  _207
REMARK   87  A    between atoms: _210  and  _212
REMARK   88  A    between atoms: _212  and  _213
REMARK   89  A    between atoms: _212  and  _215
REMARK   90  A    between atoms: _215  and  _216
REMARK   91  A    between atoms: _216  and  _217
REMARK   92  A    between atoms: _217  and  _218
REMARK   93  A    between atoms: _227  and  _229
REMARK   94  A    between atoms: _229  and  _230
REMARK   95  A    between atoms: _229  and  _232
REMARK   96  A    between atoms: _235  and  _237
REMARK   97  A    between atoms: _237  and  _238
REMARK   98  A    between atoms: _237  and  _240
REMARK   99  A    between atoms: _240  and  _241
REMARK  100  A    between atoms: _244  and  _246
REMARK  101  A    between atoms: _246  and  _247
REMARK  102  A    between atoms: _246  and  _249
REMARK  103  A    between atoms: _252  and  _254
REMARK  104  A    between atoms: _254  and  _255
REMARK  105  A    between atoms: _254  and  _257
REMARK  106  A    between atoms: _257  and  _258
REMARK  107  A    between atoms: _261  and  _263
REMARK  108  A    between atoms: _263  and  _264
REMARK  109  A    between atoms: _267  and  _269
REMARK  110  A    between atoms: _269  and  _270
REMARK  111  A    between atoms: _269  and  _272
REMARK  112  A    between atoms: _272  and  _273
REMARK  113  A    between atoms: _278  and  _280
REMARK  114  A    between atoms: _280  and  _281
REMARK  115  A    between atoms: _280  and  _283
REMARK  116  A    between atoms: _283  and  _284
REMARK  117  A    between atoms: _284  and  _285
REMARK  118  A    between atoms: _288  and  _290
REMARK  119  A    between atoms: _290  and  _291
REMARK  120  A    between atoms: _290  and  _293
REMARK  121  A    between atoms: _293  and  _294
REMARK  122  A    between atoms: _299  and  _301
REMARK  123  A    between atoms: _301  and  _302
REMARK  124  A    between atoms: _301  and  _304
REMARK  125  A    between atoms: _304  and  _305
REMARK  126  A    between atoms: _315  and  _317
REMARK  127  A    between atoms: _317  and  _318
REMARK  128  A    between atoms: _317  and  _320
REMARK  129  A    between atoms: _320  and  _321
REMARK  130  A    between atoms: _324  and  _326
REMARK  131  A    between atoms: _326  and  _327
REMARK  132  A    between atoms: _326  and  _329
REMARK  133  A    between atoms: _329  and  _330
REMARK  134  A    between atoms: _335  and  _337
REMARK  135  A    between atoms: _337  and  _338
REMARK  136  A    between atoms: _337  and  _340
REMARK  137  A    between atoms: _340  and  _341
REMARK  138  A    between atoms: _341  and  _342
REMARK  139  A    between atoms: _345  and  _347
REMARK  140  A    between atoms: _347  and  _348
REMARK  141  A    between atoms: _351  and  _353
REMARK  142  A    between atoms: _353  and  _354
REMARK  143  A    between atoms: _353  and  _356
REMARK  144  A    between atoms: _356  and  _357
REMARK  145  A    between atoms: _359  and  _361
REMARK  146  A    between atoms: _361  and  _362
REMARK  147  A    between atoms: _361  and  _364
REMARK  148  A    between atoms: _364  and  _365
REMARK  149  A    between atoms: _365  and  _366
REMARK  150  A    between atoms: _369  and  _371
REMARK  151  A    between atoms: _371  and  _372
REMARK  152  A    between atoms: _371  and  _374
REMARK  153  A    between atoms: _374  and  _375
REMARK  154  A    between atoms: _380  and  _381
REMARK  155  A    between atoms: _383  and  _385
REMARK  156  A    between atoms: _385  and  _386
REMARK  157  A    between atoms: _385  and  _388
REMARK  158  A    between atoms: _388  and  _389
REMARK  159  A    between atoms: _392  and  _394
REMARK  160  A    between atoms: _394  and  _395
REMARK  161  A    between atoms: _394  and  _397
REMARK  162  A    between atoms: _397  and  _398
REMARK  163  A    between atoms: _403  and  _405
REMARK  164  A    between atoms: _405  and  _406
REMARK  165  A    between atoms: _405  and  _408
REMARK  166  A    between atoms: _408  and  _409
REMARK  167  A    between atoms: _412  and  _414
REMARK  168  A    between atoms: _414  and  _415
REMARK  169  A    between atoms: _414  and  _417
REMARK  170  A    between atoms: _417  and  _418
REMARK  171  A    between atoms: _423  and  _424
REMARK  172  A    between atoms: _426  and  _428
REMARK  173  A    between atoms: _428  and  _429
REMARK  174  A    between atoms: _428  and  _431
REMARK  175  A    between atoms: _431  and  _432
REMARK  176  A    between atoms: _432  and  _433
REMARK  177  A    between atoms: _433  and  _434
REMARK  178  A    between atoms: _443  and  _445
REMARK  179  A    between atoms: _445  and  _446
REMARK  180  A    between atoms: _445  and  _448
REMARK  181  A    between atoms: _451  and  _453
REMARK  182  A    between atoms: _453  and  _454
REMARK  183  A    between atoms: _457  and  _459
REMARK  184  A    between atoms: _459  and  _460
REMARK  185  A    between atoms: _459  and  _462
REMARK  186  A    between atoms: _465  and  _467
REMARK  187  A    between atoms: _467  and  _468
REMARK  188  A    between atoms: _467  and  _470
REMARK  189  A    between atoms: _470  and  _471
REMARK  190  A    between atoms: _473  and  _475
REMARK  191  A    between atoms: _475  and  _476
REMARK  192  A    between atoms: _475  and  _478
REMARK  193  A    between atoms: _478  and  _479
REMARK  194  A    between atoms: _479  and  _480
REMARK  195  A    between atoms: _483  and  _485
REMARK  196  A    between atoms: _485  and  _486
REMARK  197  A    between atoms: _485  and  _488
REMARK  198  A    between atoms: _488  and  _489
REMARK  199  A    between atoms: _492  and  _494
REMARK  200  A    between atoms: _494  and  _495
REMARK  201  A    between atoms: _494  and  _497
REMARK  202  A    between atoms: _497  and  _498
REMARK  203  A    between atoms: _504  and  _506
REMARK  204  A    between atoms: _506  and  _507
REMARK  205  A    between atoms: _506  and  _509
REMARK  206  A    between atoms: _509  and  _510
REMARK  207  A    between atoms: _513  and  _515
REMARK  208  A    between atoms: _515  and  _516
REMARK  209  A    between atoms: _519  and  _521
REMARK  210  A    between atoms: _521  and  _522
REMARK  211  A    between atoms: _521  and  _524
REMARK  212  A    between atoms: _524  and  _525
REMARK  213  A    between atoms: _530  and  _531
REMARK  214  A    between atoms: _533  and  _535
REMARK  215  A    between atoms: _535  and  _536
REMARK  216  A    between atoms: _535  and  _538
REMARK  217  A    between atoms: _538  and  _539
REMARK  218  A    between atoms: _541  and  _543
REMARK  219  A    between atoms: _543  and  _544
REMARK  220  A    between atoms: _543  and  _546
REMARK  221  A    between atoms: _546  and  _547
REMARK  222  A    between atoms: _550  and  _552
REMARK  223  A    between atoms: _552  and  _553
REMARK  224  A    between atoms: _552  and  _555
REMARK  225  A    between atoms: _555  and  _556
REMARK  226  A    between atoms: _558  and  _560
REMARK  227  A    between atoms: _560  and  _561
REMARK  228  A    between atoms: _560  and  _563
REMARK  229  A    between atoms: _563  and  _564
REMARK  230  A    between atoms: _567  and  _569
REMARK  231  A    between atoms: _569  and  _570
REMARK  232  A    between atoms: _569  and  _572
REMARK  233  A    between atoms: _572  and  _573
REMARK  234  A    between atoms: _575  and  _577
REMARK  235  A    between atoms: _577  and  _578
REMARK  236  A    between atoms: _577  and  _580
REMARK  237  A    between atoms: _580  and  _581
REMARK  238  A    between atoms: _584  and  _586
REMARK  239  A    between atoms: _586  and  _587
REMARK  240  A    between atoms: _586  and  _589
REMARK  241  A    between atoms: _589  and  _590
REMARK  242  A    between atoms: _595  and  _597
REMARK  243  A    between atoms: _597  and  _598
REMARK  244  A    between atoms: _597  and  _600
REMARK  245  A    between atoms: _600  and  _601
REMARK  246  A    between atoms: _603  and  _605
REMARK  247  A    between atoms: _605  and  _606
REMARK  248  A    between atoms: _605  and  _608
REMARK  249  A    between atoms: _608  and  _609
REMARK  250  A    between atoms: _615  and  _617
REMARK  251  A    between atoms: _617  and  _618
REMARK  252  A    between atoms: _617  and  _620
REMARK  253  A    between atoms: _620  and  _621
REMARK  254  A    between atoms: _623  and  _625
REMARK  255  A    between atoms: _625  and  _626
REMARK  256  A    between atoms: _625  and  _628
REMARK  257  A    between atoms: _628  and  _629
REMARK  258  A    between atoms: _635  and  _637
REMARK  259  A    between atoms: _637  and  _638
REMARK  260  A    between atoms: _637  and  _640
REMARK  261  A    between atoms: _640  and  _641
REMARK  262  A    between atoms: _643  and  _645
REMARK  263  A    between atoms: _645  and  _646
REMARK  264  A    between atoms: _645  and  _648
REMARK  265  A    between atoms: _648  and  _649
REMARK  266  A    between atoms: _654  and  _656
REMARK  267  A    between atoms: _656  and  _657
REMARK  268  A    between atoms: _656  and  _659
REMARK  269  A    between atoms: _659  and  _660
REMARK  270  A    between atoms: _663  and  _665
REMARK  271  A    between atoms: _665  and  _666
REMARK  272  A    between atoms: _665  and  _668
REMARK  273  A    between atoms: _668  and  _669
REMARK  274  A    between atoms: _672  and  _674
REMARK  275  A    between atoms: _674  and  _675
REMARK  276  A    between atoms: _674  and  _677
REMARK  277  A    between atoms: _677  and  _678
REMARK  278  A    between atoms: _678  and  _679
REMARK  279  A    between atoms: _684  and  _686
REMARK  280  A    between atoms: _686  and  _687
REMARK  281  A    between atoms: _690  and  _692
REMARK  282  A    between atoms: _692  and  _693
REMARK  283  A    between atoms: _692  and  _695
REMARK  284  A    between atoms: _698  and  _700
REMARK  285  A    between atoms: _700  and  _701
REMARK  286  A    between atoms: _700  and  _703
REMARK  287  A    between atoms: _703  and  _704
REMARK  288  A    between atoms: _707  and  _709
REMARK  289  A    between atoms: _709  and  _710
REMARK  290  A    between atoms: _709  and  _712
REMARK  291  A    between atoms: _712  and  _713
REMARK  292  A    between atoms: _713  and  _714
REMARK  293  A    between atoms: _714  and  _715
REMARK  294  A    between atoms: _724  and  _726
REMARK  295  A    between atoms: _726  and  _727
REMARK  296  A    between atoms: _726  and  _729
REMARK  297  A    between atoms: _729  and  _730
REMARK  298  A    between atoms: _730  and  _731
REMARK  299  A    between atoms: _731  and  _732
REMARK  300  A    between atoms: _732  and  _733
REMARK                            x       y       z     vdW  Elec       q    Type
REMARK                         _______ _______ _______ _____ _____    ______ ____
ROOT
ATOM      1  O   HOH     1     110.460  12.299  20.590  0.00  0.00    +0.000 OA
ENDROOT
TORSDOF 0
REMARK  Name = ../refined-set-2016/4fys/4fys_pocket.pdb
REMARK  300 active torsions:
REMARK  status: ('A' for Active; 'I' for Inactive)
REMARK    1  A    between atoms: _1  and  _3
REMARK    2  A    between atoms: _3  and  _4
REMARK    3  A    between atoms: _3  and  _6
REMARK    4  A    between atoms: _6  and  _7
REMARK    5  A    between atoms: _7  and  _8
REMARK    6  A    between atoms: _13  and  _15
REMARK    7  A    between atoms: _15  and  _16
REMARK    8  A    between atoms: _15  and  _18
REMARK    9  A    between atoms: _18  and  _19
REMARK   10  A    between atoms: _19  and  _20
REMARK   11  A    between atoms: _22  and  _24
REMARK   12  A    between atoms: _24  and  _25
REMARK   13  A    between atoms: _24  and  _27
REMARK   14  A    between atoms: _27  and  _28
REMARK   15  A    between atoms: _28  and  _29
REMARK   16  A    between atoms: _34  and  _36
REMARK   17  A    between atoms: _36  and  _37
REMARK   18  A    between atoms: _40  and  _42
REMARK   19  A    between atoms: _42  and  _43
REMARK   20  A    between atoms: _42  and  _45
REMARK   21  A    between atoms: _45  and  _46
REMARK   22  A    between atoms: _51  and  _52
REMARK   23  A    between atoms: _54  and  _56
REMARK   24  A    between atoms: _56  and  _57
REMARK   25  A    between atoms: _56  and  _59
REMARK   26  A    between atoms: _59  and  _60
REMARK   27  A    between atoms: _63  and  _65
REMARK   28  A    between atoms: _65  and  _66
REMARK   29  A    between atoms: _65  and  _68
REMARK   30  A    between atoms: _68  and  _69
REMARK   31  A    between atoms: _75  and  _77
REMARK   32  A    between atoms: _77  and  _78
REMARK   33  A    between atoms: _77  and  _80
REMARK   34  A    between atoms: _80  and  _81
REMARK   35  A    between atoms: _86  and  _88
REMARK   36  A    between atoms: _88  and  _89
REMARK   37  A    between atoms: _92  and  _94
REMARK   38  A    between atoms: _94  and  _95
REMARK   39  A    between atoms: _97  and  _99
REMARK   40  A    between atoms: _99  and  _100
REMARK   41  A    between atoms: _103  and  _105
REMARK   42  A    between atoms: _105  and  _106
REMARK   43  A    between atoms: _105  and  _108
REMARK   44  A    between atoms: _108  and  _109
REMARK   45  A    between atoms: _109  and  _110
REMARK   46  A    between atoms: _112  and  _114
REMARK   47  A    between atoms: _114  and  _115
REMARK   48  A    between atoms: _114  and  _117
REMARK   49  A    between atoms: _117  and  _118
REMARK   50  A    between atoms: _118  and  _119
REMARK   51  A    between atoms: _122  and  _124
REMARK   52  A    between atoms: _124  and  _125
REMARK   53  A    between atoms: _124  and  _127
REMARK   54  A    between atoms: _127  and  _128
REMARK   55  A    between atoms: _133  and  _135
REMARK   56  A    between atoms: _135  and  _136
REMARK   57  A    between atoms: _135  and  _138
REMARK   58  A    between atoms: _138  and  _139
REMARK   59  A    between atoms: _142  and  _144
REMARK   60  A    between atoms: _144  and  _145
REMARK   61  A    between atoms: _144  and  _147
REMARK   62  A    between atoms: _147  and  _148
REMARK   63  A    between atoms: _153  and  _154
REMARK   64  A    between atoms: _156  and  _158
REMARK   65  A    between atoms: _158  and  _159
REMARK   66  A    between atoms: _158  and  _161
REMARK   67  A    between atoms: _161  and  _162
REMARK   68  A    between atoms: _162  and  _163
REMARK   69  A    between atoms: _163  and  _164
REMARK   70  A    between atoms: _173  and  _175
REMARK   71  A    between atoms: _175  and  _176
REMARK   72  A    between atoms: _175  and  _178
REMARK   73  A    between atoms: _178  and  _179
REMARK   74  A    between atoms: _184  and  _186
REMARK   75  A    between atoms: _186  and  _187
REMARK   76  A    between atoms: _186  and  _189
REMARK   77  A    between atoms: _189  and  _190
REMARK   78  A    between atoms: _192  and  _194
REMARK   79  A    between atoms: _194  and  _195
REMARK   80  A    between atoms: _194  and  _197
REMARK   81  A    between atoms: _197  and  _198
REMARK   82  A    between atoms: _200  and  _202
REMARK   83  A    between atoms: _202  and  _203
REMARK   84  A    between atoms: _202  and  _205
REMARK   85  A    between atoms: _205  and  _206
REMARK   86  A    between atoms: _206  and  _207
REMARK   87  A    between atoms: _210  and  _212
REMARK   88  A    between atoms: _212  and  _213
REMARK   89  A    between atoms: _212  and  _215
REMARK   90  A    between atoms: _215  and  _216
REMARK   91  A    between atoms: _216  and  _217
REMARK   92  A    between atoms: _217  and  _218
REMARK   93  A    between atoms: _227  and  _229
REMARK   94  A    between atoms: _229  and  _230
REMARK   95  A    between atoms: _229  and  _232
REMARK   96  A    between atoms: _235  and  _237
REMARK   97  A    between atoms: _237  and  _238
REMARK   98  A    between atoms: _237  and  _240
REMARK   99  A    between atoms: _240  and  _241
REMARK  100  A    between atoms: _244  and  _246
REMARK  101  A    between atoms: _246  and  _247
REMARK  102  A    between atoms: _246  and  _249
REMARK  103  A    between atoms: _252  and  _254
REMARK  104  A    between atoms: _254  and  _255
REMARK  105  A    between atoms: _254  and  _257
REMARK  106  A    between atoms: _257  and  _258
REMARK  107  A    between atoms: _261  and  _263
REMARK  108  A    between atoms: _263  and  _264
REMARK  109  A    between atoms: _267  and  _269
REMARK  110  A    between atoms: _269  and  _270
REMARK  111  A    between atoms: _269  and  _272
REMARK  112  A    between atoms: _272  and  _273
REMARK  113  A    between atoms: _278  and  _280
REMARK  114  A    between atoms: _280  and  _281
REMARK  115  A    between atoms: _280  and  _283
REMARK  116  A    between atoms: _283  and  _284
REMARK  117  A    between atoms: _284  and  _285
REMARK  118  A    between atoms: _288  and  _290
REMARK  119  A    between atoms: _290  and  _291
REMARK  120  A    between atoms: _290  and  _293
REMARK  121  A    between atoms: _293  and  _294
REMARK  122  A    between atoms: _299  and  _301
REMARK  123  A    between atoms: _301  and  _302
REMARK  124  A    between atoms: _301  and  _304
REMARK  125  A    between atoms: _304  and  _305
REMARK  126  A    between atoms: _315  and  _317
REMARK  127  A    between atoms: _317  and  _318
REMARK  128  A    between atoms: _317  and  _320
REMARK  129  A    between atoms: _320  and  _321
REMARK  130  A    between atoms: _324  and  _326
REMARK  131  A    between atoms: _326  and  _327
REMARK  132  A    between atoms: _326  and  _329
REMARK  133  A    between atoms: _329  and  _330
REMARK  134  A    between atoms: _335  and  _337
REMARK  135  A    between atoms: _337  and  _338
REMARK  136  A    between atoms: _337  and  _340
REMARK  137  A    between atoms: _340  and  _341
REMARK  138  A    between atoms: _341  and  _342
REMARK  139  A    between atoms: _345  and  _347
REMARK  140  A    between atoms: _347  and  _348
REMARK  141  A    between atoms: _351  and  _353
REMARK  142  A    between atoms: _353  and  _354
REMARK  143  A    between atoms: _353  and  _356
REMARK  144  A    between atoms: _356  and  _357
REMARK  145  A    between atoms: _359  and  _361
REMARK  146  A    between atoms: _361  and  _362
REMARK  147  A    between atoms: _361  and  _364
REMARK  148  A    between atoms: _364  and  _365
REMARK  149  A    between atoms: _365  and  _366
REMARK  150  A    between atoms: _369  and  _371
REMARK  151  A    between atoms: _371  and  _372
REMARK  152  A    between atoms: _371  and  _374
REMARK  153  A    between atoms: _374  and  _375
REMARK  154  A    between atoms: _380  and  _381
REMARK  155  A    between atoms: _383  and  _385
REMARK  156  A    between atoms: _385  and  _386
REMARK  157  A    between atoms: _385  and  _388
REMARK  158  A    between atoms: _388  and  _389
REMARK  159  A    between atoms: _392  and  _394
REMARK  160  A    between atoms: _394  and  _395
REMARK  161  A    between atoms: _394  and  _397
REMARK  162  A    between atoms: _397  and  _398
REMARK  163  A    between atoms: _403  and  _405
REMARK  164  A    between atoms: _405  and  _406
REMARK  165  A    between atoms: _405  and  _408
REMARK  166  A    between atoms: _408  and  _409
REMARK  167  A    between atoms: _412  and  _414
REMARK  168  A    between atoms: _414  and  _415
REMARK  169  A    between atoms: _414  and  _417
REMARK  170  A    between atoms: _417  and  _418
REMARK  171  A    between atoms: _423  and  _424
REMARK  172  A    between atoms: _426  and  _428
REMARK  173  A    between atoms: _428  and  _429
REMARK  174  A    between atoms: _428  and  _431
REMARK  175  A    between atoms: _431  and  _432
REMARK  176  A    between atoms: _432  and  _433
REMARK  177  A    between atoms: _433  and  _434
REMARK  178  A    between atoms: _443  and  _445
REMARK  179  A    between atoms: _445  and  _446
REMARK  180  A    between atoms: _445  and  _448
REMARK  181  A    between atoms: _451  and  _453
REMARK  182  A    between atoms: _453  and  _454
REMARK  183  A    between atoms: _457  and  _459
REMARK  184  A    between atoms: _459  and  _460
REMARK  185  A    between atoms: _459  and  _462
REMARK  186  A    between atoms: _465  and  _467
REMARK  187  A    between atoms: _467  and  _468
REMARK  188  A    between atoms: _467  and  _470
REMARK  189  A    between atoms: _470  and  _471
REMARK  190  A    between atoms: _473  and  _475
REMARK  191  A    between atoms: _475  and  _476
REMARK  192  A    between atoms: _475  and  _478
REMARK  193  A    between atoms: _478  and  _479
REMARK  194  A    between atoms: _479  and  _480
REMARK  195  A    between atoms: _483  and  _485
REMARK  196  A    between atoms: _485  and  _486
REMARK  197  A    between atoms: _485  and  _488
REMARK  198  A    between atoms: _488  and  _489
REMARK  199  A    between atoms: _492  and  _494
REMARK  200  A    between atoms: _494  and  _495
REMARK  201  A    between atoms: _494  and  _497
REMARK  202  A    between atoms: _497  and  _498
REMARK  203  A    between atoms: _504  and  _506
REMARK  204  A    between atoms: _506  and  _507
REMARK  205  A    between atoms: _506  and  _509
REMARK  206  A    between atoms: _509  and  _510
REMARK  207  A    between atoms: _513  and  _515
REMARK  208  A    between atoms: _515  and  _516
REMARK  209  A    between atoms: _519  and  _521
REMARK  210  A    between atoms: _521  and  _522
REMARK  211  A    between atoms: _521  and  _524
REMARK  212  A    between atoms: _524  and  _525
REMARK  213  A    between atoms: _530  and  _531
REMARK  214  A    between atoms: _533  and  _535
REMARK  215  A    between atoms: _535  and  _536
REMARK  216  A    between atoms: _535  and  _538
REMARK  217  A    between atoms: _538  and  _539
REMARK  218  A    between atoms: _541  and  _543
REMARK  219  A    between atoms: _543  and  _544
REMARK  220  A    between atoms: _543  and  _546
REMARK  221  A    between atoms: _546  and  _547
REMARK  222  A    between atoms: _550  and  _552
REMARK  223  A    between atoms: _552  and  _553
REMARK  224  A    between atoms: _552  and  _555
REMARK  225  A    between atoms: _555  and  _556
REMARK  226  A    between atoms: _558  and  _560
REMARK  227  A    between atoms: _560  and  _561
REMARK  228  A    between atoms: _560  and  _563
REMARK  229  A    between atoms: _563  and  _564
REMARK  230  A    between atoms: _567  and  _569
REMARK  231  A    between atoms: _569  and  _570
REMARK  232  A    between atoms: _569  and  _572
REMARK  233  A    between atoms: _572  and  _573
REMARK  234  A    between atoms: _575  and  _577
REMARK  235  A    between atoms: _577  and  _578
REMARK  236  A    between atoms: _577  and  _580
REMARK  237  A    between atoms: _580  and  _581
REMARK  238  A    between atoms: _584  and  _586
REMARK  239  A    between atoms: _586  and  _587
REMARK  240  A    between atoms: _586  and  _589
REMARK  241  A    between atoms: _589  and  _590
REMARK  242  A    between atoms: _595  and  _597
REMARK  243  A    between atoms: _597  and  _598
REMARK  244  A    between atoms: _597  and  _600
REMARK  245  A    between atoms: _600  and  _601
REMARK  246  A    between atoms: _603  and  _605
REMARK  247  A    between atoms: _605  and  _606
REMARK  248  A    between atoms: _605  and  _608
REMARK  249  A    between atoms: _608  and  _609
REMARK  250  A    between atoms: _615  and  _617
REMARK  251  A    between atoms: _617  and  _618
REMARK  252  A    between atoms: _617  and  _620
REMARK  253  A    between atoms: _620  and  _621
REMARK  254  A    between atoms: _623  and  _625
REMARK  255  A    between atoms: _625  and  _626
REMARK  256  A    between atoms: _625  and  _628
REMARK  257  A    between atoms: _628  and  _629
REMARK  258  A    between atoms: _635  and  _637
REMARK  259  A    between atoms: _637  and  _638
REMARK  260  A    between atoms: _637  and  _640
REMARK  261  A    between atoms: _640  and  _641
REMARK  262  A    between atoms: _643  and  _645
REMARK  263  A    between atoms: _645  and  _646
REMARK  264  A    between atoms: _645  and  _648
REMARK  265  A    between atoms: _648  and  _649
REMARK  266  A    between atoms: _654  and  _656
REMARK  267  A    between atoms: _656  and  _657
REMARK  268  A    between atoms: _656  and  _659
REMARK  269  A    between atoms: _659  and  _660
REMARK  270  A    between atoms: _663  and  _665
REMARK  271  A    between atoms: _665  and  _666
REMARK  272  A    between atoms: _665  and  _668
REMARK  273  A    between atoms: _668  and  _669
REMARK  274  A    between atoms: _672  and  _674
REMARK  275  A    between atoms: _674  and  _675
REMARK  276  A    between atoms: _674  and  _677
REMARK  277  A    between atoms: _677  and  _678
REMARK  278  A    between atoms: _678  and  _679
REMARK  279  A    between atoms: _684  and  _686
REMARK  280  A    between atoms: _686  and  _687
REMARK  281  A    between atoms: _690  and  _692
REMARK  282  A    between atoms: _692  and  _693
REMARK  283  A    between atoms: _692  and  _695
REMARK  284  A    between atoms: _698  and  _700
REMARK  285  A    between atoms: _700  and  _701
REMARK  286  A    between atoms: _700  and  _703
REMARK  287  A    between atoms: _703  and  _704
REMARK  288  A    between atoms: _707  and  _709
REMARK  289  A    between atoms: _709  and  _710
REMARK  290  A    between atoms: _709  and  _712
REMARK  291  A    between atoms: _712  and  _713
REMARK  292  A    between atoms: _713  and  _714
REMARK  293  A    between atoms: _714  and  _715
REMARK  294  A    between atoms: _724  and  _726
REMARK  295  A    between atoms: _726  and  _727
REMARK  296  A    between atoms: _726  and  _729
REMARK  297  A    between atoms: _729  and  _730
REMARK  298  A    between atoms: _730  and  _731
REMARK  299  A    between atoms: _731  and  _732
REMARK  300  A    between atoms: _732  and  _733
REMARK                            x       y       z     vdW  Elec       q    Type
REMARK                         _______ _______ _______ _____ _____    ______ ____
ROOT
ATOM      1  O   HOH     1     108.147  14.253  28.649  0.00  0.00    +0.000 OA
ENDROOT
TORSDOF 0
REMARK  Name = ../refined-set-2016/4fys/4fys_pocket.pdb
REMARK  300 active torsions:
REMARK  status: ('A' for Active; 'I' for Inactive)
REMARK    1  A    between atoms: _1  and  _3
REMARK    2  A    between atoms: _3  and  _4
REMARK    3  A    between atoms: _3  and  _6
REMARK    4  A    between atoms: _6  and  _7
REMARK    5  A    between atoms: _7  and  _8
REMARK    6  A    between atoms: _13  and  _15
REMARK    7  A    between atoms: _15  and  _16
REMARK    8  A    between atoms: _15  and  _18
REMARK    9  A    between atoms: _18  and  _19
REMARK   10  A    between atoms: _19  and  _20
REMARK   11  A    between atoms: _22  and  _24
REMARK   12  A    between atoms: _24  and  _25
REMARK   13  A    between atoms: _24  and  _27
REMARK   14  A    between atoms: _27  and  _28
REMARK   15  A    between atoms: _28  and  _29
REMARK   16  A    between atoms: _34  and  _36
REMARK   17  A    between atoms: _36  and  _37
REMARK   18  A    between atoms: _40  and  _42
REMARK   19  A    between atoms: _42  and  _43
REMARK   20  A    between atoms: _42  and  _45
REMARK   21  A    between atoms: _45  and  _46
REMARK   22  A    between atoms: _51  and  _52
REMARK   23  A    between atoms: _54  and  _56
REMARK   24  A    between atoms: _56  and  _57
REMARK   25  A    between atoms: _56  and  _59
REMARK   26  A    between atoms: _59  and  _60
REMARK   27  A    between atoms: _63  and  _65
REMARK   28  A    between atoms: _65  and  _66
REMARK   29  A    between atoms: _65  and  _68
REMARK   30  A    between atoms: _68  and  _69
REMARK   31  A    between atoms: _75  and  _77
REMARK   32  A    between atoms: _77  and  _78
REMARK   33  A    between atoms: _77  and  _80
REMARK   34  A    between atoms: _80  and  _81
REMARK   35  A    between atoms: _86  and  _88
REMARK   36  A    between atoms: _88  and  _89
REMARK   37  A    between atoms: _92  and  _94
REMARK   38  A    between atoms: _94  and  _95
REMARK   39  A    between atoms: _97  and  _99
REMARK   40  A    between atoms: _99  and  _100
REMARK   41  A    between atoms: _103  and  _105
REMARK   42  A    between atoms: _105  and  _106
REMARK   43  A    between atoms: _105  and  _108
REMARK   44  A    between atoms: _108  and  _109
REMARK   45  A    between atoms: _109  and  _110
REMARK   46  A    between atoms: _112  and  _114
REMARK   47  A    between atoms: _114  and  _115
REMARK   48  A    between atoms: _114  and  _117
REMARK   49  A    between atoms: _117  and  _118
REMARK   50  A    between atoms: _118  and  _119
REMARK   51  A    between atoms: _122  and  _124
REMARK   52  A    between atoms: _124  and  _125
REMARK   53  A    between atoms: _124  and  _127
REMARK   54  A    between atoms: _127  and  _128
REMARK   55  A    between atoms: _133  and  _135
REMARK   56  A    between atoms: _135  and  _136
REMARK   57  A    between atoms: _135  and  _138
REMARK   58  A    between atoms: _138  and  _139
REMARK   59  A    between atoms: _142  and  _144
REMARK   60  A    between atoms: _144  and  _145
REMARK   61  A    between atoms: _144  and  _147
REMARK   62  A    between atoms: _147  and  _148
REMARK   63  A    between atoms: _153  and  _154
REMARK   64  A    between atoms: _156  and  _158
REMARK   65  A    between atoms: _158  and  _159
REMARK   66  A    between atoms: _158  and  _161
REMARK   67  A    between atoms: _161  and  _162
REMARK   68  A    between atoms: _162  and  _163
REMARK   69  A    between atoms: _163  and  _164
REMARK   70  A    between atoms: _173  and  _175
REMARK   71  A    between atoms: _175  and  _176
REMARK   72  A    between atoms: _175  and  _178
REMARK   73  A    between atoms: _178  and  _179
REMARK   74  A    between atoms: _184  and  _186
REMARK   75  A    between atoms: _186  and  _187
REMARK   76  A    between atoms: _186  and  _189
REMARK   77  A    between atoms: _189  and  _190
REMARK   78  A    between atoms: _192  and  _194
REMARK   79  A    between atoms: _194  and  _195
REMARK   80  A    between atoms: _194  and  _197
REMARK   81  A    between atoms: _197  and  _198
REMARK   82  A    between atoms: _200  and  _202
REMARK   83  A    between atoms: _202  and  _203
REMARK   84  A    between atoms: _202  and  _205
REMARK   85  A    between atoms: _205  and  _206
REMARK   86  A    between atoms: _206  and  _207
REMARK   87  A    between atoms: _210  and  _212
REMARK   88  A    between atoms: _212  and  _213
REMARK   89  A    between atoms: _212  and  _215
REMARK   90  A    between atoms: _215  and  _216
REMARK   91  A    between atoms: _216  and  _217
REMARK   92  A    between atoms: _217  and  _218
REMARK   93  A    between atoms: _227  and  _229
REMARK   94  A    between atoms: _229  and  _230
REMARK   95  A    between atoms: _229  and  _232
REMARK   96  A    between atoms: _235  and  _237
REMARK   97  A    between atoms: _237  and  _238
REMARK   98  A    between atoms: _237  and  _240
REMARK   99  A    between atoms: _240  and  _241
REMARK  100  A    between atoms: _244  and  _246
REMARK  101  A    between atoms: _246  and  _247
REMARK  102  A    between atoms: _246  and  _249
REMARK  103  A    between atoms: _252  and  _254
REMARK  104  A    between atoms: _254  and  _255
REMARK  105  A    between atoms: _254  and  _257
REMARK  106  A    between atoms: _257  and  _258
REMARK  107  A    between atoms: _261  and  _263
REMARK  108  A    between atoms: _263  and  _264
REMARK  109  A    between atoms: _267  and  _269
REMARK  110  A    between atoms: _269  and  _270
REMARK  111  A    between atoms: _269  and  _272
REMARK  112  A    between atoms: _272  and  _273
REMARK  113  A    between atoms: _278  and  _280
REMARK  114  A    between atoms: _280  and  _281
REMARK  115  A    between atoms: _280  and  _283
REMARK  116  A    between atoms: _283  and  _284
REMARK  117  A    between atoms: _284  and  _285
REMARK  118  A    between atoms: _288  and  _290
REMARK  119  A    between atoms: _290  and  _291
REMARK  120  A    between atoms: _290  and  _293
REMARK  121  A    between atoms: _293  and  _294
REMARK  122  A    between atoms: _299  and  _301
REMARK  123  A    between atoms: _301  and  _302
REMARK  124  A    between atoms: _301  and  _304
REMARK  125  A    between atoms: _304  and  _305
REMARK  126  A    between atoms: _315  and  _317
REMARK  127  A    between atoms: _317  and  _318
REMARK  128  A    between atoms: _317  and  _320
REMARK  129  A    between atoms: _320  and  _321
REMARK  130  A    between atoms: _324  and  _326
REMARK  131  A    between atoms: _326  and  _327
REMARK  132  A    between atoms: _326  and  _329
REMARK  133  A    between atoms: _329  and  _330
REMARK  134  A    between atoms: _335  and  _337
REMARK  135  A    between atoms: _337  and  _338
REMARK  136  A    between atoms: _337  and  _340
REMARK  137  A    between atoms: _340  and  _341
REMARK  138  A    between atoms: _341  and  _342
REMARK  139  A    between atoms: _345  and  _347
REMARK  140  A    between atoms: _347  and  _348
REMARK  141  A    between atoms: _351  and  _353
REMARK  142  A    between atoms: _353  and  _354
REMARK  143  A    between atoms: _353  and  _356
REMARK  144  A    between atoms: _356  and  _357
REMARK  145  A    between atoms: _359  and  _361
REMARK  146  A    between atoms: _361  and  _362
REMARK  147  A    between atoms: _361  and  _364
REMARK  148  A    between atoms: _364  and  _365
REMARK  149  A    between atoms: _365  and  _366
REMARK  150  A    between atoms: _369  and  _371
REMARK  151  A    between atoms: _371  and  _372
REMARK  152  A    between atoms: _371  and  _374
REMARK  153  A    between atoms: _374  and  _375
REMARK  154  A    between atoms: _380  and  _381
REMARK  155  A    between atoms: _383  and  _385
REMARK  156  A    between atoms: _385  and  _386
REMARK  157  A    between atoms: _385  and  _388
REMARK  158  A    between atoms: _388  and  _389
REMARK  159  A    between atoms: _392  and  _394
REMARK  160  A    between atoms: _394  and  _395
REMARK  161  A    between atoms: _394  and  _397
REMARK  162  A    between atoms: _397  and  _398
REMARK  163  A    between atoms: _403  and  _405
REMARK  164  A    between atoms: _405  and  _406
REMARK  165  A    between atoms: _405  and  _408
REMARK  166  A    between atoms: _408  and  _409
REMARK  167  A    between atoms: _412  and  _414
REMARK  168  A    between atoms: _414  and  _415
REMARK  169  A    between atoms: _414  and  _417
REMARK  170  A    between atoms: _417  and  _418
REMARK  171  A    between atoms: _423  and  _424
REMARK  172  A    between atoms: _426  and  _428
REMARK  173  A    between atoms: _428  and  _429
REMARK  174  A    between atoms: _428  and  _431
REMARK  175  A    between atoms: _431  and  _432
REMARK  176  A    between atoms: _432  and  _433
REMARK  177  A    between atoms: _433  and  _434
REMARK  178  A    between atoms: _443  and  _445
REMARK  179  A    between atoms: _445  and  _446
REMARK  180  A    between atoms: _445  and  _448
REMARK  181  A    between atoms: _451  and  _453
REMARK  182  A    between atoms: _453  and  _454
REMARK  183  A    between atoms: _457  and  _459
REMARK  184  A    between atoms: _459  and  _460
REMARK  185  A    between atoms: _459  and  _462
REMARK  186  A    between atoms: _465  and  _467
REMARK  187  A    between atoms: _467  and  _468
REMARK  188  A    between atoms: _467  and  _470
REMARK  189  A    between atoms: _470  and  _471
REMARK  190  A    between atoms: _473  and  _475
REMARK  191  A    between atoms: _475  and  _476
REMARK  192  A    between atoms: _475  and  _478
REMARK  193  A    between atoms: _478  and  _479
REMARK  194  A    between atoms: _479  and  _480
REMARK  195  A    between atoms: _483  and  _485
REMARK  196  A    between atoms: _485  and  _486
REMARK  197  A    between atoms: _485  and  _488
REMARK  198  A    between atoms: _488  and  _489
REMARK  199  A    between atoms: _492  and  _494
REMARK  200  A    between atoms: _494  and  _495
REMARK  201  A    between atoms: _494  and  _497
REMARK  202  A    between atoms: _497  and  _498
REMARK  203  A    between atoms: _504  and  _506
REMARK  204  A    between atoms: _506  and  _507
REMARK  205  A    between atoms: _506  and  _509
REMARK  206  A    between atoms: _509  and  _510
REMARK  207  A    between atoms: _513  and  _515
REMARK  208  A    between atoms: _515  and  _516
REMARK  209  A    between atoms: _519  and  _521
REMARK  210  A    between atoms: _521  and  _522
REMARK  211  A    between atoms: _521  and  _524
REMARK  212  A    between atoms: _524  and  _525
REMARK  213  A    between atoms: _530  and  _531
REMARK  214  A    between atoms: _533  and  _535
REMARK  215  A    between atoms: _535  and  _536
REMARK  216  A    between atoms: _535  and  _538
REMARK  217  A    between atoms: _538  and  _539
REMARK  218  A    between atoms: _541  and  _543
REMARK  219  A    between atoms: _543  and  _544
REMARK  220  A    between atoms: _543  and  _546
REMARK  221  A    between atoms: _546  and  _547
REMARK  222  A    between atoms: _550  and  _552
REMARK  223  A    between atoms: _552  and  _553
REMARK  224  A    between atoms: _552  and  _555
REMARK  225  A    between atoms: _555  and  _556
REMARK  226  A    between atoms: _558  and  _560
REMARK  227  A    between atoms: _560  and  _561
REMARK  228  A    between atoms: _560  and  _563
REMARK  229  A    between atoms: _563  and  _564
REMARK  230  A    between atoms: _567  and  _569
REMARK  231  A    between atoms: _569  and  _570
REMARK  232  A    between atoms: _569  and  _572
REMARK  233  A    between atoms: _572  and  _573
REMARK  234  A    between atoms: _575  and  _577
REMARK  235  A    between atoms: _577  and  _578
REMARK  236  A    between atoms: _577  and  _580
REMARK  237  A    between atoms: _580  and  _581
REMARK  238  A    between atoms: _584  and  _586
REMARK  239  A    between atoms: _586  and  _587
REMARK  240  A    between atoms: _586  and  _589
REMARK  241  A    between atoms: _589  and  _590
REMARK  242  A    between atoms: _595  and  _597
REMARK  243  A    between atoms: _597  and  _598
REMARK  244  A    between atoms: _597  and  _600
REMARK  245  A    between atoms: _600  and  _601
REMARK  246  A    between atoms: _603  and  _605
REMARK  247  A    between atoms: _605  and  _606
REMARK  248  A    between atoms: _605  and  _608
REMARK  249  A    between atoms: _608  and  _609
REMARK  250  A    between atoms: _615  and  _617
REMARK  251  A    between atoms: _617  and  _618
REMARK  252  A    between atoms: _617  and  _620
REMARK  253  A    between atoms: _620  and  _621
REMARK  254  A    between atoms: _623  and  _625
REMARK  255  A    between atoms: _625  and  _626
REMARK  256  A    between atoms: _625  and  _628
REMARK  257  A    between atoms: _628  and  _629
REMARK  258  A    between atoms: _635  and  _637
REMARK  259  A    between atoms: _637  and  _638
REMARK  260  A    between atoms: _637  and  _640
REMARK  261  A    between atoms: _640  and  _641
REMARK  262  A    between atoms: _643  and  _645
REMARK  263  A    between atoms: _645  and  _646
REMARK  264  A    between atoms: _645  and  _648
REMARK  265  A    between atoms: _648  and  _649
REMARK  266  A    between atoms: _654  and  _656
REMARK  267  A    between atoms: _656  and  _657
REMARK  268  A    between atoms: _656  and  _659
REMARK  269  A    between atoms: _659  and  _660
REMARK  270  A    between atoms: _663  and  _665
REMARK  271  A    between atoms: _665  and  _666
REMARK  272  A    between atoms: _665  and  _668
REMARK  273  A    between atoms: _668  and  _669
REMARK  274  A    between atoms: _672  and  _674
REMARK  275  A    between atoms: _674  and  _675
REMARK  276  A    between atoms: _674  and  _677
REMARK  277  A    between atoms: _677  and  _678
REMARK  278  A    between atoms: _678  and  _679
REMARK  279  A    between atoms: _684  and  _686
REMARK  280  A    between atoms: _686  and  _687
REMARK  281  A    between atoms: _690  and  _692
REMARK  282  A    between atoms: _692  and  _693
REMARK  283  A    between atoms: _692  and  _695
REMARK  284  A    between atoms: _698  and  _700
REMARK  285  A    between atoms: _700  and  _701
REMARK  286  A    between atoms: _700  and  _703
REMARK  287  A    between atoms: _703  and  _704
REMARK  288  A    between atoms: _707  and  _709
REMARK  289  A    between atoms: _709  and  _710
REMARK  290  A    between atoms: _709  and  _712
REMARK  291  A    between atoms: _712  and  _713
REMARK  292  A    between atoms: _713  and  _714
REMARK  293  A    between atoms: _714  and  _715
REMARK  294  A    between atoms: _724  and  _726
REMARK  295  A    between atoms: _726  and  _727
REMARK  296  A    between atoms: _726  and  _729
REMARK  297  A    between atoms: _729  and  _730
REMARK  298  A    between atoms: _730  and  _731
REMARK  299  A    between atoms: _731  and  _732
REMARK  300  A    between atoms: _732  and  _733
REMARK                            x       y       z     vdW  Elec       q    Type
REMARK                         _______ _______ _______ _____ _____    ______ ____
ROOT
ATOM      1  O   HOH     1     115.867  15.917  24.052  0.00  0.00    +0.000 OA
ENDROOT
TORSDOF 0
REMARK  Name = ../refined-set-2016/4fys/4fys_pocket.pdb
REMARK  300 active torsions:
REMARK  status: ('A' for Active; 'I' for Inactive)
REMARK    1  A    between atoms: _1  and  _3
REMARK    2  A    between atoms: _3  and  _4
REMARK    3  A    between atoms: _3  and  _6
REMARK    4  A    between atoms: _6  and  _7
REMARK    5  A    between atoms: _7  and  _8
REMARK    6  A    between atoms: _13  and  _15
REMARK    7  A    between atoms: _15  and  _16
REMARK    8  A    between atoms: _15  and  _18
REMARK    9  A    between atoms: _18  and  _19
REMARK   10  A    between atoms: _19  and  _20
REMARK   11  A    between atoms: _22  and  _24
REMARK   12  A    between atoms: _24  and  _25
REMARK   13  A    between atoms: _24  and  _27
REMARK   14  A    between atoms: _27  and  _28
REMARK   15  A    between atoms: _28  and  _29
REMARK   16  A    between atoms: _34  and  _36
REMARK   17  A    between atoms: _36  and  _37
REMARK   18  A    between atoms: _40  and  _42
REMARK   19  A    between atoms: _42  and  _43
REMARK   20  A    between atoms: _42  and  _45
REMARK   21  A    between atoms: _45  and  _46
REMARK   22  A    between atoms: _51  and  _52
REMARK   23  A    between atoms: _54  and  _56
REMARK   24  A    between atoms: _56  and  _57
REMARK   25  A    between atoms: _56  and  _59
REMARK   26  A    between atoms: _59  and  _60
REMARK   27  A    between atoms: _63  and  _65
REMARK   28  A    between atoms: _65  and  _66
REMARK   29  A    between atoms: _65  and  _68
REMARK   30  A    between atoms: _68  and  _69
REMARK   31  A    between atoms: _75  and  _77
REMARK   32  A    between atoms: _77  and  _78
REMARK   33  A    between atoms: _77  and  _80
REMARK   34  A    between atoms: _80  and  _81
REMARK   35  A    between atoms: _86  and  _88
REMARK   36  A    between atoms: _88  and  _89
REMARK   37  A    between atoms: _92  and  _94
REMARK   38  A    between atoms: _94  and  _95
REMARK   39  A    between atoms: _97  and  _99
REMARK   40  A    between atoms: _99  and  _100
REMARK   41  A    between atoms: _103  and  _105
REMARK   42  A    between atoms: _105  and  _106
REMARK   43  A    between atoms: _105  and  _108
REMARK   44  A    between atoms: _108  and  _109
REMARK   45  A    between atoms: _109  and  _110
REMARK   46  A    between atoms: _112  and  _114
REMARK   47  A    between atoms: _114  and  _115
REMARK   48  A    between atoms: _114  and  _117
REMARK   49  A    between atoms: _117  and  _118
REMARK   50  A    between atoms: _118  and  _119
REMARK   51  A    between atoms: _122  and  _124
REMARK   52  A    between atoms: _124  and  _125
REMARK   53  A    between atoms: _124  and  _127
REMARK   54  A    between atoms: _127  and  _128
REMARK   55  A    between atoms: _133  and  _135
REMARK   56  A    between atoms: _135  and  _136
REMARK   57  A    between atoms: _135  and  _138
REMARK   58  A    between atoms: _138  and  _139
REMARK   59  A    between atoms: _142  and  _144
REMARK   60  A    between atoms: _144  and  _145
REMARK   61  A    between atoms: _144  and  _147
REMARK   62  A    between atoms: _147  and  _148
REMARK   63  A    between atoms: _153  and  _154
REMARK   64  A    between atoms: _156  and  _158
REMARK   65  A    between atoms: _158  and  _159
REMARK   66  A    between atoms: _158  and  _161
REMARK   67  A    between atoms: _161  and  _162
REMARK   68  A    between atoms: _162  and  _163
REMARK   69  A    between atoms: _163  and  _164
REMARK   70  A    between atoms: _173  and  _175
REMARK   71  A    between atoms: _175  and  _176
REMARK   72  A    between atoms: _175  and  _178
REMARK   73  A    between atoms: _178  and  _179
REMARK   74  A    between atoms: _184  and  _186
REMARK   75  A    between atoms: _186  and  _187
REMARK   76  A    between atoms: _186  and  _189
REMARK   77  A    between atoms: _189  and  _190
REMARK   78  A    between atoms: _192  and  _194
REMARK   79  A    between atoms: _194  and  _195
REMARK   80  A    between atoms: _194  and  _197
REMARK   81  A    between atoms: _197  and  _198
REMARK   82  A    between atoms: _200  and  _202
REMARK   83  A    between atoms: _202  and  _203
REMARK   84  A    between atoms: _202  and  _205
REMARK   85  A    between atoms: _205  and  _206
REMARK   86  A    between atoms: _206  and  _207
REMARK   87  A    between atoms: _210  and  _212
REMARK   88  A    between atoms: _212  and  _213
REMARK   89  A    between atoms: _212  and  _215
REMARK   90  A    between atoms: _215  and  _216
REMARK   91  A    between atoms: _216  and  _217
REMARK   92  A    between atoms: _217  and  _218
REMARK   93  A    between atoms: _227  and  _229
REMARK   94  A    between atoms: _229  and  _230
REMARK   95  A    between atoms: _229  and  _232
REMARK   96  A    between atoms: _235  and  _237
REMARK   97  A    between atoms: _237  and  _238
REMARK   98  A    between atoms: _237  and  _240
REMARK   99  A    between atoms: _240  and  _241
REMARK  100  A    between atoms: _244  and  _246
REMARK  101  A    between atoms: _246  and  _247
REMARK  102  A    between atoms: _246  and  _249
REMARK  103  A    between atoms: _252  and  _254
REMARK  104  A    between atoms: _254  and  _255
REMARK  105  A    between atoms: _254  and  _257
REMARK  106  A    between atoms: _257  and  _258
REMARK  107  A    between atoms: _261  and  _263
REMARK  108  A    between atoms: _263  and  _264
REMARK  109  A    between atoms: _267  and  _269
REMARK  110  A    between atoms: _269  and  _270
REMARK  111  A    between atoms: _269  and  _272
REMARK  112  A    between atoms: _272  and  _273
REMARK  113  A    between atoms: _278  and  _280
REMARK  114  A    between atoms: _280  and  _281
REMARK  115  A    between atoms: _280  and  _283
REMARK  116  A    between atoms: _283  and  _284
REMARK  117  A    between atoms: _284  and  _285
REMARK  118  A    between atoms: _288  and  _290
REMARK  119  A    between atoms: _290  and  _291
REMARK  120  A    between atoms: _290  and  _293
REMARK  121  A    between atoms: _293  and  _294
REMARK  122  A    between atoms: _299  and  _301
REMARK  123  A    between atoms: _301  and  _302
REMARK  124  A    between atoms: _301  and  _304
REMARK  125  A    between atoms: _304  and  _305
REMARK  126  A    between atoms: _315  and  _317
REMARK  127  A    between atoms: _317  and  _318
REMARK  128  A    between atoms: _317  and  _320
REMARK  129  A    between atoms: _320  and  _321
REMARK  130  A    between atoms: _324  and  _326
REMARK  131  A    between atoms: _326  and  _327
REMARK  132  A    between atoms: _326  and  _329
REMARK  133  A    between atoms: _329  and  _330
REMARK  134  A    between atoms: _335  and  _337
REMARK  135  A    between atoms: _337  and  _338
REMARK  136  A    between atoms: _337  and  _340
REMARK  137  A    between atoms: _340  and  _341
REMARK  138  A    between atoms: _341  and  _342
REMARK  139  A    between atoms: _345  and  _347
REMARK  140  A    between atoms: _347  and  _348
REMARK  141  A    between atoms: _351  and  _353
REMARK  142  A    between atoms: _353  and  _354
REMARK  143  A    between atoms: _353  and  _356
REMARK  144  A    between atoms: _356  and  _357
REMARK  145  A    between atoms: _359  and  _361
REMARK  146  A    between atoms: _361  and  _362
REMARK  147  A    between atoms: _361  and  _364
REMARK  148  A    between atoms: _364  and  _365
REMARK  149  A    between atoms: _365  and  _366
REMARK  150  A    between atoms: _369  and  _371
REMARK  151  A    between atoms: _371  and  _372
REMARK  152  A    between atoms: _371  and  _374
REMARK  153  A    between atoms: _374  and  _375
REMARK  154  A    between atoms: _380  and  _381
REMARK  155  A    between atoms: _383  and  _385
REMARK  156  A    between atoms: _385  and  _386
REMARK  157  A    between atoms: _385  and  _388
REMARK  158  A    between atoms: _388  and  _389
REMARK  159  A    between atoms: _392  and  _394
REMARK  160  A    between atoms: _394  and  _395
REMARK  161  A    between atoms: _394  and  _397
REMARK  162  A    between atoms: _397  and  _398
REMARK  163  A    between atoms: _403  and  _405
REMARK  164  A    between atoms: _405  and  _406
REMARK  165  A    between atoms: _405  and  _408
REMARK  166  A    between atoms: _408  and  _409
REMARK  167  A    between atoms: _412  and  _414
REMARK  168  A    between atoms: _414  and  _415
REMARK  169  A    between atoms: _414  and  _417
REMARK  170  A    between atoms: _417  and  _418
REMARK  171  A    between atoms: _423  and  _424
REMARK  172  A    between atoms: _426  and  _428
REMARK  173  A    between atoms: _428  and  _429
REMARK  174  A    between atoms: _428  and  _431
REMARK  175  A    between atoms: _431  and  _432
REMARK  176  A    between atoms: _432  and  _433
REMARK  177  A    between atoms: _433  and  _434
REMARK  178  A    between atoms: _443  and  _445
REMARK  179  A    between atoms: _445  and  _446
REMARK  180  A    between atoms: _445  and  _448
REMARK  181  A    between atoms: _451  and  _453
REMARK  182  A    between atoms: _453  and  _454
REMARK  183  A    between atoms: _457  and  _459
REMARK  184  A    between atoms: _459  and  _460
REMARK  185  A    between atoms: _459  and  _462
REMARK  186  A    between atoms: _465  and  _467
REMARK  187  A    between atoms: _467  and  _468
REMARK  188  A    between atoms: _467  and  _470
REMARK  189  A    between atoms: _470  and  _471
REMARK  190  A    between atoms: _473  and  _475
REMARK  191  A    between atoms: _475  and  _476
REMARK  192  A    between atoms: _475  and  _478
REMARK  193  A    between atoms: _478  and  _479
REMARK  194  A    between atoms: _479  and  _480
REMARK  195  A    between atoms: _483  and  _485
REMARK  196  A    between atoms: _485  and  _486
REMARK  197  A    between atoms: _485  and  _488
REMARK  198  A    between atoms: _488  and  _489
REMARK  199  A    between atoms: _492  and  _494
REMARK  200  A    between atoms: _494  and  _495
REMARK  201  A    between atoms: _494  and  _497
REMARK  202  A    between atoms: _497  and  _498
REMARK  203  A    between atoms: _504  and  _506
REMARK  204  A    between atoms: _506  and  _507
REMARK  205  A    between atoms: _506  and  _509
REMARK  206  A    between atoms: _509  and  _510
REMARK  207  A    between atoms: _513  and  _515
REMARK  208  A    between atoms: _515  and  _516
REMARK  209  A    between atoms: _519  and  _521
REMARK  210  A    between atoms: _521  and  _522
REMARK  211  A    between atoms: _521  and  _524
REMARK  212  A    between atoms: _524  and  _525
REMARK  213  A    between atoms: _530  and  _531
REMARK  214  A    between atoms: _533  and  _535
REMARK  215  A    between atoms: _535  and  _536
REMARK  216  A    between atoms: _535  and  _538
REMARK  217  A    between atoms: _538  and  _539
REMARK  218  A    between atoms: _541  and  _543
REMARK  219  A    between atoms: _543  and  _544
REMARK  220  A    between atoms: _543  and  _546
REMARK  221  A    between atoms: _546  and  _547
REMARK  222  A    between atoms: _550  and  _552
REMARK  223  A    between atoms: _552  and  _553
REMARK  224  A    between atoms: _552  and  _555
REMARK  225  A    between atoms: _555  and  _556
REMARK  226  A    between atoms: _558  and  _560
REMARK  227  A    between atoms: _560  and  _561
REMARK  228  A    between atoms: _560  and  _563
REMARK  229  A    between atoms: _563  and  _564
REMARK  230  A    between atoms: _567  and  _569
REMARK  231  A    between atoms: _569  and  _570
REMARK  232  A    between atoms: _569  and  _572
REMARK  233  A    between atoms: _572  and  _573
REMARK  234  A    between atoms: _575  and  _577
REMARK  235  A    between atoms: _577  and  _578
REMARK  236  A    between atoms: _577  and  _580
REMARK  237  A    between atoms: _580  and  _581
REMARK  238  A    between atoms: _584  and  _586
REMARK  239  A    between atoms: _586  and  _587
REMARK  240  A    between atoms: _586  and  _589
REMARK  241  A    between atoms: _589  and  _590
REMARK  242  A    between atoms: _595  and  _597
REMARK  243  A    between atoms: _597  and  _598
REMARK  244  A    between atoms: _597  and  _600
REMARK  245  A    between atoms: _600  and  _601
REMARK  246  A    between atoms: _603  and  _605
REMARK  247  A    between atoms: _605  and  _606
REMARK  248  A    between atoms: _605  and  _608
REMARK  249  A    between atoms: _608  and  _609
REMARK  250  A    between atoms: _615  and  _617
REMARK  251  A    between atoms: _617  and  _618
REMARK  252  A    between atoms: _617  and  _620
REMARK  253  A    between atoms: _620  and  _621
REMARK  254  A    between atoms: _623  and  _625
REMARK  255  A    between atoms: _625  and  _626
REMARK  256  A    between atoms: _625  and  _628
REMARK  257  A    between atoms: _628  and  _629
REMARK  258  A    between atoms: _635  and  _637
REMARK  259  A    between atoms: _637  and  _638
REMARK  260  A    between atoms: _637  and  _640
REMARK  261  A    between atoms: _640  and  _641
REMARK  262  A    between atoms: _643  and  _645
REMARK  263  A    between atoms: _645  and  _646
REMARK  264  A    between atoms: _645  and  _648
REMARK  265  A    between atoms: _648  and  _649
REMARK  266  A    between atoms: _654  and  _656
REMARK  267  A    between atoms: _656  and  _657
REMARK  268  A    between atoms: _656  and  _659
REMARK  269  A    between atoms: _659  and  _660
REMARK  270  A    between atoms: _663  and  _665
REMARK  271  A    between atoms: _665  and  _666
REMARK  272  A    between atoms: _665  and  _668
REMARK  273  A    between atoms: _668  and  _669
REMARK  274  A    between atoms: _672  and  _674
REMARK  275  A    between atoms: _674  and  _675
REMARK  276  A    between atoms: _674  and  _677
REMARK  277  A    between atoms: _677  and  _678
REMARK  278  A    between atoms: _678  and  _679
REMARK  279  A    between atoms: _684  and  _686
REMARK  280  A    between atoms: _686  and  _687
REMARK  281  A    between atoms: _690  and  _692
REMARK  282  A    between atoms: _692  and  _693
REMARK  283  A    between atoms: _692  and  _695
REMARK  284  A    between atoms: _698  and  _700
REMARK  285  A    between atoms: _700  and  _701
REMARK  286  A    between atoms: _700  and  _703
REMARK  287  A    between atoms: _703  and  _704
REMARK  288  A    between atoms: _707  and  _709
REMARK  289  A    between atoms: _709  and  _710
REMARK  290  A    between atoms: _709  and  _712
REMARK  291  A    between atoms: _712  and  _713
REMARK  292  A    between atoms: _713  and  _714
REMARK  293  A    between atoms: _714  and  _715
REMARK  294  A    between atoms: _724  and  _726
REMARK  295  A    between atoms: _726  and  _727
REMARK  296  A    between atoms: _726  and  _729
REMARK  297  A    between atoms: _729  and  _730
REMARK  298  A    between atoms: _730  and  _731
REMARK  299  A    between atoms: _731  and  _732
REMARK  300  A    between atoms: _732  and  _733
REMARK                            x       y       z     vdW  Elec       q    Type
REMARK                         _______ _______ _______ _____ _____    ______ ____
ROOT
ATOM      1  O   HOH     1      98.161  23.844   6.906  0.00  0.00    +0.000 OA
ENDROOT
TORSDOF 0
REMARK  Name = ../refined-set-2016/4fys/4fys_pocket.pdb
REMARK  300 active torsions:
REMARK  status: ('A' for Active; 'I' for Inactive)
REMARK    1  A    between atoms: _1  and  _3
REMARK    2  A    between atoms: _3  and  _4
REMARK    3  A    between atoms: _3  and  _6
REMARK    4  A    between atoms: _6  and  _7
REMARK    5  A    between atoms: _7  and  _8
REMARK    6  A    between atoms: _13  and  _15
REMARK    7  A    between atoms: _15  and  _16
REMARK    8  A    between atoms: _15  and  _18
REMARK    9  A    between atoms: _18  and  _19
REMARK   10  A    between atoms: _19  and  _20
REMARK   11  A    between atoms: _22  and  _24
REMARK   12  A    between atoms: _24  and  _25
REMARK   13  A    between atoms: _24  and  _27
REMARK   14  A    between atoms: _27  and  _28
REMARK   15  A    between atoms: _28  and  _29
REMARK   16  A    between atoms: _34  and  _36
REMARK   17  A    between atoms: _36  and  _37
REMARK   18  A    between atoms: _40  and  _42
REMARK   19  A    between atoms: _42  and  _43
REMARK   20  A    between atoms: _42  and  _45
REMARK   21  A    between atoms: _45  and  _46
REMARK   22  A    between atoms: _51  and  _52
REMARK   23  A    between atoms: _54  and  _56
REMARK   24  A    between atoms: _56  and  _57
REMARK   25  A    between atoms: _56  and  _59
REMARK   26  A    between atoms: _59  and  _60
REMARK   27  A    between atoms: _63  and  _65
REMARK   28  A    between atoms: _65  and  _66
REMARK   29  A    between atoms: _65  and  _68
REMARK   30  A    between atoms: _68  and  _69
REMARK   31  A    between atoms: _75  and  _77
REMARK   32  A    between atoms: _77  and  _78
REMARK   33  A    between atoms: _77  and  _80
REMARK   34  A    between atoms: _80  and  _81
REMARK   35  A    between atoms: _86  and  _88
REMARK   36  A    between atoms: _88  and  _89
REMARK   37  A    between atoms: _92  and  _94
REMARK   38  A    between atoms: _94  and  _95
REMARK   39  A    between atoms: _97  and  _99
REMARK   40  A    between atoms: _99  and  _100
REMARK   41  A    between atoms: _103  and  _105
REMARK   42  A    between atoms: _105  and  _106
REMARK   43  A    between atoms: _105  and  _108
REMARK   44  A    between atoms: _108  and  _109
REMARK   45  A    between atoms: _109  and  _110
REMARK   46  A    between atoms: _112  and  _114
REMARK   47  A    between atoms: _114  and  _115
REMARK   48  A    between atoms: _114  and  _117
REMARK   49  A    between atoms: _117  and  _118
REMARK   50  A    between atoms: _118  and  _119
REMARK   51  A    between atoms: _122  and  _124
REMARK   52  A    between atoms: _124  and  _125
REMARK   53  A    between atoms: _124  and  _127
REMARK   54  A    between atoms: _127  and  _128
REMARK   55  A    between atoms: _133  and  _135
REMARK   56  A    between atoms: _135  and  _136
REMARK   57  A    between atoms: _135  and  _138
REMARK   58  A    between atoms: _138  and  _139
REMARK   59  A    between atoms: _142  and  _144
REMARK   60  A    between atoms: _144  and  _145
REMARK   61  A    between atoms: _144  and  _147
REMARK   62  A    between atoms: _147  and  _148
REMARK   63  A    between atoms: _153  and  _154
REMARK   64  A    between atoms: _156  and  _158
REMARK   65  A    between atoms: _158  and  _159
REMARK   66  A    between atoms: _158  and  _161
REMARK   67  A    between atoms: _161  and  _162
REMARK   68  A    between atoms: _162  and  _163
REMARK   69  A    between atoms: _163  and  _164
REMARK   70  A    between atoms: _173  and  _175
REMARK   71  A    between atoms: _175  and  _176
REMARK   72  A    between atoms: _175  and  _178
REMARK   73  A    between atoms: _178  and  _179
REMARK   74  A    between atoms: _184  and  _186
REMARK   75  A    between atoms: _186  and  _187
REMARK   76  A    between atoms: _186  and  _189
REMARK   77  A    between atoms: _189  and  _190
REMARK   78  A    between atoms: _192  and  _194
REMARK   79  A    between atoms: _194  and  _195
REMARK   80  A    between atoms: _194  and  _197
REMARK   81  A    between atoms: _197  and  _198
REMARK   82  A    between atoms: _200  and  _202
REMARK   83  A    between atoms: _202  and  _203
REMARK   84  A    between atoms: _202  and  _205
REMARK   85  A    between atoms: _205  and  _206
REMARK   86  A    between atoms: _206  and  _207
REMARK   87  A    between atoms: _210  and  _212
REMARK   88  A    between atoms: _212  and  _213
REMARK   89  A    between atoms: _212  and  _215
REMARK   90  A    between atoms: _215  and  _216
REMARK   91  A    between atoms: _216  and  _217
REMARK   92  A    between atoms: _217  and  _218
REMARK   93  A    between atoms: _227  and  _229
REMARK   94  A    between atoms: _229  and  _230
REMARK   95  A    between atoms: _229  and  _232
REMARK   96  A    between atoms: _235  and  _237
REMARK   97  A    between atoms: _237  and  _238
REMARK   98  A    between atoms: _237  and  _240
REMARK   99  A    between atoms: _240  and  _241
REMARK  100  A    between atoms: _244  and  _246
REMARK  101  A    between atoms: _246  and  _247
REMARK  102  A    between atoms: _246  and  _249
REMARK  103  A    between atoms: _252  and  _254
REMARK  104  A    between atoms: _254  and  _255
REMARK  105  A    between atoms: _254  and  _257
REMARK  106  A    between atoms: _257  and  _258
REMARK  107  A    between atoms: _261  and  _263
REMARK  108  A    between atoms: _263  and  _264
REMARK  109  A    between atoms: _267  and  _269
REMARK  110  A    between atoms: _269  and  _270
REMARK  111  A    between atoms: _269  and  _272
REMARK  112  A    between atoms: _272  and  _273
REMARK  113  A    between atoms: _278  and  _280
REMARK  114  A    between atoms: _280  and  _281
REMARK  115  A    between atoms: _280  and  _283
REMARK  116  A    between atoms: _283  and  _284
REMARK  117  A    between atoms: _284  and  _285
REMARK  118  A    between atoms: _288  and  _290
REMARK  119  A    between atoms: _290  and  _291
REMARK  120  A    between atoms: _290  and  _293
REMARK  121  A    between atoms: _293  and  _294
REMARK  122  A    between atoms: _299  and  _301
REMARK  123  A    between atoms: _301  and  _302
REMARK  124  A    between atoms: _301  and  _304
REMARK  125  A    between atoms: _304  and  _305
REMARK  126  A    between atoms: _315  and  _317
REMARK  127  A    between atoms: _317  and  _318
REMARK  128  A    between atoms: _317  and  _320
REMARK  129  A    between atoms: _320  and  _321
REMARK  130  A    between atoms: _324  and  _326
REMARK  131  A    between atoms: _326  and  _327
REMARK  132  A    between atoms: _326  and  _329
REMARK  133  A    between atoms: _329  and  _330
REMARK  134  A    between atoms: _335  and  _337
REMARK  135  A    between atoms: _337  and  _338
REMARK  136  A    between atoms: _337  and  _340
REMARK  137  A    between atoms: _340  and  _341
REMARK  138  A    between atoms: _341  and  _342
REMARK  139  A    between atoms: _345  and  _347
REMARK  140  A    between atoms: _347  and  _348
REMARK  141  A    between atoms: _351  and  _353
REMARK  142  A    between atoms: _353  and  _354
REMARK  143  A    between atoms: _353  and  _356
REMARK  144  A    between atoms: _356  and  _357
REMARK  145  A    between atoms: _359  and  _361
REMARK  146  A    between atoms: _361  and  _362
REMARK  147  A    between atoms: _361  and  _364
REMARK  148  A    between atoms: _364  and  _365
REMARK  149  A    between atoms: _365  and  _366
REMARK  150  A    between atoms: _369  and  _371
REMARK  151  A    between atoms: _371  and  _372
REMARK  152  A    between atoms: _371  and  _374
REMARK  153  A    between atoms: _374  and  _375
REMARK  154  A    between atoms: _380  and  _381
REMARK  155  A    between atoms: _383  and  _385
REMARK  156  A    between atoms: _385  and  _386
REMARK  157  A    between atoms: _385  and  _388
REMARK  158  A    between atoms: _388  and  _389
REMARK  159  A    between atoms: _392  and  _394
REMARK  160  A    between atoms: _394  and  _395
REMARK  161  A    between atoms: _394  and  _397
REMARK  162  A    between atoms: _397  and  _398
REMARK  163  A    between atoms: _403  and  _405
REMARK  164  A    between atoms: _405  and  _406
REMARK  165  A    between atoms: _405  and  _408
REMARK  166  A    between atoms: _408  and  _409
REMARK  167  A    between atoms: _412  and  _414
REMARK  168  A    between atoms: _414  and  _415
REMARK  169  A    between atoms: _414  and  _417
REMARK  170  A    between atoms: _417  and  _418
REMARK  171  A    between atoms: _423  and  _424
REMARK  172  A    between atoms: _426  and  _428
REMARK  173  A    between atoms: _428  and  _429
REMARK  174  A    between atoms: _428  and  _431
REMARK  175  A    between atoms: _431  and  _432
REMARK  176  A    between atoms: _432  and  _433
REMARK  177  A    between atoms: _433  and  _434
REMARK  178  A    between atoms: _443  and  _445
REMARK  179  A    between atoms: _445  and  _446
REMARK  180  A    between atoms: _445  and  _448
REMARK  181  A    between atoms: _451  and  _453
REMARK  182  A    between atoms: _453  and  _454
REMARK  183  A    between atoms: _457  and  _459
REMARK  184  A    between atoms: _459  and  _460
REMARK  185  A    between atoms: _459  and  _462
REMARK  186  A    between atoms: _465  and  _467
REMARK  187  A    between atoms: _467  and  _468
REMARK  188  A    between atoms: _467  and  _470
REMARK  189  A    between atoms: _470  and  _471
REMARK  190  A    between atoms: _473  and  _475
REMARK  191  A    between atoms: _475  and  _476
REMARK  192  A    between atoms: _475  and  _478
REMARK  193  A    between atoms: _478  and  _479
REMARK  194  A    between atoms: _479  and  _480
REMARK  195  A    between atoms: _483  and  _485
REMARK  196  A    between atoms: _485  and  _486
REMARK  197  A    between atoms: _485  and  _488
REMARK  198  A    between atoms: _488  and  _489
REMARK  199  A    between atoms: _492  and  _494
REMARK  200  A    between atoms: _494  and  _495
REMARK  201  A    between atoms: _494  and  _497
REMARK  202  A    between atoms: _497  and  _498
REMARK  203  A    between atoms: _504  and  _506
REMARK  204  A    between atoms: _506  and  _507
REMARK  205  A    between atoms: _506  and  _509
REMARK  206  A    between atoms: _509  and  _510
REMARK  207  A    between atoms: _513  and  _515
REMARK  208  A    between atoms: _515  and  _516
REMARK  209  A    between atoms: _519  and  _521
REMARK  210  A    between atoms: _521  and  _522
REMARK  211  A    between atoms: _521  and  _524
REMARK  212  A    between atoms: _524  and  _525
REMARK  213  A    between atoms: _530  and  _531
REMARK  214  A    between atoms: _533  and  _535
REMARK  215  A    between atoms: _535  and  _536
REMARK  216  A    between atoms: _535  and  _538
REMARK  217  A    between atoms: _538  and  _539
REMARK  218  A    between atoms: _541  and  _543
REMARK  219  A    between atoms: _543  and  _544
REMARK  220  A    between atoms: _543  and  _546
REMARK  221  A    between atoms: _546  and  _547
REMARK  222  A    between atoms: _550  and  _552
REMARK  223  A    between atoms: _552  and  _553
REMARK  224  A    between atoms: _552  and  _555
REMARK  225  A    between atoms: _555  and  _556
REMARK  226  A    between atoms: _558  and  _560
REMARK  227  A    between atoms: _560  and  _561
REMARK  228  A    between atoms: _560  and  _563
REMARK  229  A    between atoms: _563  and  _564
REMARK  230  A    between atoms: _567  and  _569
REMARK  231  A    between atoms: _569  and  _570
REMARK  232  A    between atoms: _569  and  _572
REMARK  233  A    between atoms: _572  and  _573
REMARK  234  A    between atoms: _575  and  _577
REMARK  235  A    between atoms: _577  and  _578
REMARK  236  A    between atoms: _577  and  _580
REMARK  237  A    between atoms: _580  and  _581
REMARK  238  A    between atoms: _584  and  _586
REMARK  239  A    between atoms: _586  and  _587
REMARK  240  A    between atoms: _586  and  _589
REMARK  241  A    between atoms: _589  and  _590
REMARK  242  A    between atoms: _595  and  _597
REMARK  243  A    between atoms: _597  and  _598
REMARK  244  A    between atoms: _597  and  _600
REMARK  245  A    between atoms: _600  and  _601
REMARK  246  A    between atoms: _603  and  _605
REMARK  247  A    between atoms: _605  and  _606
REMARK  248  A    between atoms: _605  and  _608
REMARK  249  A    between atoms: _608  and  _609
REMARK  250  A    between atoms: _615  and  _617
REMARK  251  A    between atoms: _617  and  _618
REMARK  252  A    between atoms: _617  and  _620
REMARK  253  A    between atoms: _620  and  _621
REMARK  254  A    between atoms: _623  and  _625
REMARK  255  A    between atoms: _625  and  _626
REMARK  256  A    between atoms: _625  and  _628
REMARK  257  A    between atoms: _628  and  _629
REMARK  258  A    between atoms: _635  and  _637
REMARK  259  A    between atoms: _637  and  _638
REMARK  260  A    between atoms: _637  and  _640
REMARK  261  A    between atoms: _640  and  _641
REMARK  262  A    between atoms: _643  and  _645
REMARK  263  A    between atoms: _645  and  _646
REMARK  264  A    between atoms: _645  and  _648
REMARK  265  A    between atoms: _648  and  _649
REMARK  266  A    between atoms: _654  and  _656
REMARK  267  A    between atoms: _656  and  _657
REMARK  268  A    between atoms: _656  and  _659
REMARK  269  A    between atoms: _659  and  _660
REMARK  270  A    between atoms: _663  and  _665
REMARK  271  A    between atoms: _665  and  _666
REMARK  272  A    between atoms: _665  and  _668
REMARK  273  A    between atoms: _668  and  _669
REMARK  274  A    between atoms: _672  and  _674
REMARK  275  A    between atoms: _674  and  _675
REMARK  276  A    between atoms: _674  and  _677
REMARK  277  A    between atoms: _677  and  _678
REMARK  278  A    between atoms: _678  and  _679
REMARK  279  A    between atoms: _684  and  _686
REMARK  280  A    between atoms: _686  and  _687
REMARK  281  A    between atoms: _690  and  _692
REMARK  282  A    between atoms: _692  and  _693
REMARK  283  A    between atoms: _692  and  _695
REMARK  284  A    between atoms: _698  and  _700
REMARK  285  A    between atoms: _700  and  _701
REMARK  286  A    between atoms: _700  and  _703
REMARK  287  A    between atoms: _703  and  _704
REMARK  288  A    between atoms: _707  and  _709
REMARK  289  A    between atoms: _709  and  _710
REMARK  290  A    between atoms: _709  and  _712
REMARK  291  A    between atoms: _712  and  _713
REMARK  292  A    between atoms: _713  and  _714
REMARK  293  A    between atoms: _714  and  _715
REMARK  294  A    between atoms: _724  and  _726
REMARK  295  A    between atoms: _726  and  _727
REMARK  296  A    between atoms: _726  and  _729
REMARK  297  A    between atoms: _729  and  _730
REMARK  298  A    between atoms: _730  and  _731
REMARK  299  A    between atoms: _731  and  _732
REMARK  300  A    between atoms: _732  and  _733
REMARK                            x       y       z     vdW  Elec       q    Type
REMARK                         _______ _______ _______ _____ _____    ______ ____
ROOT
ATOM      1  O   HOH     1     114.419  24.233  24.045  0.00  0.00    +0.000 OA
ENDROOT
TORSDOF 0
REMARK  Name = ../refined-set-2016/4fys/4fys_pocket.pdb
REMARK  300 active torsions:
REMARK  status: ('A' for Active; 'I' for Inactive)
REMARK    1  A    between atoms: _1  and  _3
REMARK    2  A    between atoms: _3  and  _4
REMARK    3  A    between atoms: _3  and  _6
REMARK    4  A    between atoms: _6  and  _7
REMARK    5  A    between atoms: _7  and  _8
REMARK    6  A    between atoms: _13  and  _15
REMARK    7  A    between atoms: _15  and  _16
REMARK    8  A    between atoms: _15  and  _18
REMARK    9  A    between atoms: _18  and  _19
REMARK   10  A    between atoms: _19  and  _20
REMARK   11  A    between atoms: _22  and  _24
REMARK   12  A    between atoms: _24  and  _25
REMARK   13  A    between atoms: _24  and  _27
REMARK   14  A    between atoms: _27  and  _28
REMARK   15  A    between atoms: _28  and  _29
REMARK   16  A    between atoms: _34  and  _36
REMARK   17  A    between atoms: _36  and  _37
REMARK   18  A    between atoms: _40  and  _42
REMARK   19  A    between atoms: _42  and  _43
REMARK   20  A    between atoms: _42  and  _45
REMARK   21  A    between atoms: _45  and  _46
REMARK   22  A    between atoms: _51  and  _52
REMARK   23  A    between atoms: _54  and  _56
REMARK   24  A    between atoms: _56  and  _57
REMARK   25  A    between atoms: _56  and  _59
REMARK   26  A    between atoms: _59  and  _60
REMARK   27  A    between atoms: _63  and  _65
REMARK   28  A    between atoms: _65  and  _66
REMARK   29  A    between atoms: _65  and  _68
REMARK   30  A    between atoms: _68  and  _69
REMARK   31  A    between atoms: _75  and  _77
REMARK   32  A    between atoms: _77  and  _78
REMARK   33  A    between atoms: _77  and  _80
REMARK   34  A    between atoms: _80  and  _81
REMARK   35  A    between atoms: _86  and  _88
REMARK   36  A    between atoms: _88  and  _89
REMARK   37  A    between atoms: _92  and  _94
REMARK   38  A    between atoms: _94  and  _95
REMARK   39  A    between atoms: _97  and  _99
REMARK   40  A    between atoms: _99  and  _100
REMARK   41  A    between atoms: _103  and  _105
REMARK   42  A    between atoms: _105  and  _106
REMARK   43  A    between atoms: _105  and  _108
REMARK   44  A    between atoms: _108  and  _109
REMARK   45  A    between atoms: _109  and  _110
REMARK   46  A    between atoms: _112  and  _114
REMARK   47  A    between atoms: _114  and  _115
REMARK   48  A    between atoms: _114  and  _117
REMARK   49  A    between atoms: _117  and  _118
REMARK   50  A    between atoms: _118  and  _119
REMARK   51  A    between atoms: _122  and  _124
REMARK   52  A    between atoms: _124  and  _125
REMARK   53  A    between atoms: _124  and  _127
REMARK   54  A    between atoms: _127  and  _128
REMARK   55  A    between atoms: _133  and  _135
REMARK   56  A    between atoms: _135  and  _136
REMARK   57  A    between atoms: _135  and  _138
REMARK   58  A    between atoms: _138  and  _139
REMARK   59  A    between atoms: _142  and  _144
REMARK   60  A    between atoms: _144  and  _145
REMARK   61  A    between atoms: _144  and  _147
REMARK   62  A    between atoms: _147  and  _148
REMARK   63  A    between atoms: _153  and  _154
REMARK   64  A    between atoms: _156  and  _158
REMARK   65  A    between atoms: _158  and  _159
REMARK   66  A    between atoms: _158  and  _161
REMARK   67  A    between atoms: _161  and  _162
REMARK   68  A    between atoms: _162  and  _163
REMARK   69  A    between atoms: _163  and  _164
REMARK   70  A    between atoms: _173  and  _175
REMARK   71  A    between atoms: _175  and  _176
REMARK   72  A    between atoms: _175  and  _178
REMARK   73  A    between atoms: _178  and  _179
REMARK   74  A    between atoms: _184  and  _186
REMARK   75  A    between atoms: _186  and  _187
REMARK   76  A    between atoms: _186  and  _189
REMARK   77  A    between atoms: _189  and  _190
REMARK   78  A    between atoms: _192  and  _194
REMARK   79  A    between atoms: _194  and  _195
REMARK   80  A    between atoms: _194  and  _197
REMARK   81  A    between atoms: _197  and  _198
REMARK   82  A    between atoms: _200  and  _202
REMARK   83  A    between atoms: _202  and  _203
REMARK   84  A    between atoms: _202  and  _205
REMARK   85  A    between atoms: _205  and  _206
REMARK   86  A    between atoms: _206  and  _207
REMARK   87  A    between atoms: _210  and  _212
REMARK   88  A    between atoms: _212  and  _213
REMARK   89  A    between atoms: _212  and  _215
REMARK   90  A    between atoms: _215  and  _216
REMARK   91  A    between atoms: _216  and  _217
REMARK   92  A    between atoms: _217  and  _218
REMARK   93  A    between atoms: _227  and  _229
REMARK   94  A    between atoms: _229  and  _230
REMARK   95  A    between atoms: _229  and  _232
REMARK   96  A    between atoms: _235  and  _237
REMARK   97  A    between atoms: _237  and  _238
REMARK   98  A    between atoms: _237  and  _240
REMARK   99  A    between atoms: _240  and  _241
REMARK  100  A    between atoms: _244  and  _246
REMARK  101  A    between atoms: _246  and  _247
REMARK  102  A    between atoms: _246  and  _249
REMARK  103  A    between atoms: _252  and  _254
REMARK  104  A    between atoms: _254  and  _255
REMARK  105  A    between atoms: _254  and  _257
REMARK  106  A    between atoms: _257  and  _258
REMARK  107  A    between atoms: _261  and  _263
REMARK  108  A    between atoms: _263  and  _264
REMARK  109  A    between atoms: _267  and  _269
REMARK  110  A    between atoms: _269  and  _270
REMARK  111  A    between atoms: _269  and  _272
REMARK  112  A    between atoms: _272  and  _273
REMARK  113  A    between atoms: _278  and  _280
REMARK  114  A    between atoms: _280  and  _281
REMARK  115  A    between atoms: _280  and  _283
REMARK  116  A    between atoms: _283  and  _284
REMARK  117  A    between atoms: _284  and  _285
REMARK  118  A    between atoms: _288  and  _290
REMARK  119  A    between atoms: _290  and  _291
REMARK  120  A    between atoms: _290  and  _293
REMARK  121  A    between atoms: _293  and  _294
REMARK  122  A    between atoms: _299  and  _301
REMARK  123  A    between atoms: _301  and  _302
REMARK  124  A    between atoms: _301  and  _304
REMARK  125  A    between atoms: _304  and  _305
REMARK  126  A    between atoms: _315  and  _317
REMARK  127  A    between atoms: _317  and  _318
REMARK  128  A    between atoms: _317  and  _320
REMARK  129  A    between atoms: _320  and  _321
REMARK  130  A    between atoms: _324  and  _326
REMARK  131  A    between atoms: _326  and  _327
REMARK  132  A    between atoms: _326  and  _329
REMARK  133  A    between atoms: _329  and  _330
REMARK  134  A    between atoms: _335  and  _337
REMARK  135  A    between atoms: _337  and  _338
REMARK  136  A    between atoms: _337  and  _340
REMARK  137  A    between atoms: _340  and  _341
REMARK  138  A    between atoms: _341  and  _342
REMARK  139  A    between atoms: _345  and  _347
REMARK  140  A    between atoms: _347  and  _348
REMARK  141  A    between atoms: _351  and  _353
REMARK  142  A    between atoms: _353  and  _354
REMARK  143  A    between atoms: _353  and  _356
REMARK  144  A    between atoms: _356  and  _357
REMARK  145  A    between atoms: _359  and  _361
REMARK  146  A    between atoms: _361  and  _362
REMARK  147  A    between atoms: _361  and  _364
REMARK  148  A    between atoms: _364  and  _365
REMARK  149  A    between atoms: _365  and  _366
REMARK  150  A    between atoms: _369  and  _371
REMARK  151  A    between atoms: _371  and  _372
REMARK  152  A    between atoms: _371  and  _374
REMARK  153  A    between atoms: _374  and  _375
REMARK  154  A    between atoms: _380  and  _381
REMARK  155  A    between atoms: _383  and  _385
REMARK  156  A    between atoms: _385  and  _386
REMARK  157  A    between atoms: _385  and  _388
REMARK  158  A    between atoms: _388  and  _389
REMARK  159  A    between atoms: _392  and  _394
REMARK  160  A    between atoms: _394  and  _395
REMARK  161  A    between atoms: _394  and  _397
REMARK  162  A    between atoms: _397  and  _398
REMARK  163  A    between atoms: _403  and  _405
REMARK  164  A    between atoms: _405  and  _406
REMARK  165  A    between atoms: _405  and  _408
REMARK  166  A    between atoms: _408  and  _409
REMARK  167  A    between atoms: _412  and  _414
REMARK  168  A    between atoms: _414  and  _415
REMARK  169  A    between atoms: _414  and  _417
REMARK  170  A    between atoms: _417  and  _418
REMARK  171  A    between atoms: _423  and  _424
REMARK  172  A    between atoms: _426  and  _428
REMARK  173  A    between atoms: _428  and  _429
REMARK  174  A    between atoms: _428  and  _431
REMARK  175  A    between atoms: _431  and  _432
REMARK  176  A    between atoms: _432  and  _433
REMARK  177  A    between atoms: _433  and  _434
REMARK  178  A    between atoms: _443  and  _445
REMARK  179  A    between atoms: _445  and  _446
REMARK  180  A    between atoms: _445  and  _448
REMARK  181  A    between atoms: _451  and  _453
REMARK  182  A    between atoms: _453  and  _454
REMARK  183  A    between atoms: _457  and  _459
REMARK  184  A    between atoms: _459  and  _460
REMARK  185  A    between atoms: _459  and  _462
REMARK  186  A    between atoms: _465  and  _467
REMARK  187  A    between atoms: _467  and  _468
REMARK  188  A    between atoms: _467  and  _470
REMARK  189  A    between atoms: _470  and  _471
REMARK  190  A    between atoms: _473  and  _475
REMARK  191  A    between atoms: _475  and  _476
REMARK  192  A    between atoms: _475  and  _478
REMARK  193  A    between atoms: _478  and  _479
REMARK  194  A    between atoms: _479  and  _480
REMARK  195  A    between atoms: _483  and  _485
REMARK  196  A    between atoms: _485  and  _486
REMARK  197  A    between atoms: _485  and  _488
REMARK  198  A    between atoms: _488  and  _489
REMARK  199  A    between atoms: _492  and  _494
REMARK  200  A    between atoms: _494  and  _495
REMARK  201  A    between atoms: _494  and  _497
REMARK  202  A    between atoms: _497  and  _498
REMARK  203  A    between atoms: _504  and  _506
REMARK  204  A    between atoms: _506  and  _507
REMARK  205  A    between atoms: _506  and  _509
REMARK  206  A    between atoms: _509  and  _510
REMARK  207  A    between atoms: _513  and  _515
REMARK  208  A    between atoms: _515  and  _516
REMARK  209  A    between atoms: _519  and  _521
REMARK  210  A    between atoms: _521  and  _522
REMARK  211  A    between atoms: _521  and  _524
REMARK  212  A    between atoms: _524  and  _525
REMARK  213  A    between atoms: _530  and  _531
REMARK  214  A    between atoms: _533  and  _535
REMARK  215  A    between atoms: _535  and  _536
REMARK  216  A    between atoms: _535  and  _538
REMARK  217  A    between atoms: _538  and  _539
REMARK  218  A    between atoms: _541  and  _543
REMARK  219  A    between atoms: _543  and  _544
REMARK  220  A    between atoms: _543  and  _546
REMARK  221  A    between atoms: _546  and  _547
REMARK  222  A    between atoms: _550  and  _552
REMARK  223  A    between atoms: _552  and  _553
REMARK  224  A    between atoms: _552  and  _555
REMARK  225  A    between atoms: _555  and  _556
REMARK  226  A    between atoms: _558  and  _560
REMARK  227  A    between atoms: _560  and  _561
REMARK  228  A    between atoms: _560  and  _563
REMARK  229  A    between atoms: _563  and  _564
REMARK  230  A    between atoms: _567  and  _569
REMARK  231  A    between atoms: _569  and  _570
REMARK  232  A    between atoms: _569  and  _572
REMARK  233  A    between atoms: _572  and  _573
REMARK  234  A    between atoms: _575  and  _577
REMARK  235  A    between atoms: _577  and  _578
REMARK  236  A    between atoms: _577  and  _580
REMARK  237  A    between atoms: _580  and  _581
REMARK  238  A    between atoms: _584  and  _586
REMARK  239  A    between atoms: _586  and  _587
REMARK  240  A    between atoms: _586  and  _589
REMARK  241  A    between atoms: _589  and  _590
REMARK  242  A    between atoms: _595  and  _597
REMARK  243  A    between atoms: _597  and  _598
REMARK  244  A    between atoms: _597  and  _600
REMARK  245  A    between atoms: _600  and  _601
REMARK  246  A    between atoms: _603  and  _605
REMARK  247  A    between atoms: _605  and  _606
REMARK  248  A    between atoms: _605  and  _608
REMARK  249  A    between atoms: _608  and  _609
REMARK  250  A    between atoms: _615  and  _617
REMARK  251  A    between atoms: _617  and  _618
REMARK  252  A    between atoms: _617  and  _620
REMARK  253  A    between atoms: _620  and  _621
REMARK  254  A    between atoms: _623  and  _625
REMARK  255  A    between atoms: _625  and  _626
REMARK  256  A    between atoms: _625  and  _628
REMARK  257  A    between atoms: _628  and  _629
REMARK  258  A    between atoms: _635  and  _637
REMARK  259  A    between atoms: _637  and  _638
REMARK  260  A    between atoms: _637  and  _640
REMARK  261  A    between atoms: _640  and  _641
REMARK  262  A    between atoms: _643  and  _645
REMARK  263  A    between atoms: _645  and  _646
REMARK  264  A    between atoms: _645  and  _648
REMARK  265  A    between atoms: _648  and  _649
REMARK  266  A    between atoms: _654  and  _656
REMARK  267  A    between atoms: _656  and  _657
REMARK  268  A    between atoms: _656  and  _659
REMARK  269  A    between atoms: _659  and  _660
REMARK  270  A    between atoms: _663  and  _665
REMARK  271  A    between atoms: _665  and  _666
REMARK  272  A    between atoms: _665  and  _668
REMARK  273  A    between atoms: _668  and  _669
REMARK  274  A    between atoms: _672  and  _674
REMARK  275  A    between atoms: _674  and  _675
REMARK  276  A    between atoms: _674  and  _677
REMARK  277  A    between atoms: _677  and  _678
REMARK  278  A    between atoms: _678  and  _679
REMARK  279  A    between atoms: _684  and  _686
REMARK  280  A    between atoms: _686  and  _687
REMARK  281  A    between atoms: _690  and  _692
REMARK  282  A    between atoms: _692  and  _693
REMARK  283  A    between atoms: _692  and  _695
REMARK  284  A    between atoms: _698  and  _700
REMARK  285  A    between atoms: _700  and  _701
REMARK  286  A    between atoms: _700  and  _703
REMARK  287  A    between atoms: _703  and  _704
REMARK  288  A    between atoms: _707  and  _709
REMARK  289  A    between atoms: _709  and  _710
REMARK  290  A    between atoms: _709  and  _712
REMARK  291  A    between atoms: _712  and  _713
REMARK  292  A    between atoms: _713  and  _714
REMARK  293  A    between atoms: _714  and  _715
REMARK  294  A    between atoms: _724  and  _726
REMARK  295  A    between atoms: _726  and  _727
REMARK  296  A    between atoms: _726  and  _729
REMARK  297  A    between atoms: _729  and  _730
REMARK  298  A    between atoms: _730  and  _731
REMARK  299  A    between atoms: _731  and  _732
REMARK  300  A    between atoms: _732  and  _733
REMARK                            x       y       z     vdW  Elec       q    Type
REMARK                         _______ _______ _______ _____ _____    ______ ____
ROOT
ATOM      1  O   HOH     1     110.855  23.080  24.324  0.00  0.00    +0.000 OA
ENDROOT
TORSDOF 0
REMARK  Name = ../refined-set-2016/4fys/4fys_pocket.pdb
REMARK  300 active torsions:
REMARK  status: ('A' for Active; 'I' for Inactive)
REMARK    1  A    between atoms: _1  and  _3
REMARK    2  A    between atoms: _3  and  _4
REMARK    3  A    between atoms: _3  and  _6
REMARK    4  A    between atoms: _6  and  _7
REMARK    5  A    between atoms: _7  and  _8
REMARK    6  A    between atoms: _13  and  _15
REMARK    7  A    between atoms: _15  and  _16
REMARK    8  A    between atoms: _15  and  _18
REMARK    9  A    between atoms: _18  and  _19
REMARK   10  A    between atoms: _19  and  _20
REMARK   11  A    between atoms: _22  and  _24
REMARK   12  A    between atoms: _24  and  _25
REMARK   13  A    between atoms: _24  and  _27
REMARK   14  A    between atoms: _27  and  _28
REMARK   15  A    between atoms: _28  and  _29
REMARK   16  A    between atoms: _34  and  _36
REMARK   17  A    between atoms: _36  and  _37
REMARK   18  A    between atoms: _40  and  _42
REMARK   19  A    between atoms: _42  and  _43
REMARK   20  A    between atoms: _42  and  _45
REMARK   21  A    between atoms: _45  and  _46
REMARK   22  A    between atoms: _51  and  _52
REMARK   23  A    between atoms: _54  and  _56
REMARK   24  A    between atoms: _56  and  _57
REMARK   25  A    between atoms: _56  and  _59
REMARK   26  A    between atoms: _59  and  _60
REMARK   27  A    between atoms: _63  and  _65
REMARK   28  A    between atoms: _65  and  _66
REMARK   29  A    between atoms: _65  and  _68
REMARK   30  A    between atoms: _68  and  _69
REMARK   31  A    between atoms: _75  and  _77
REMARK   32  A    between atoms: _77  and  _78
REMARK   33  A    between atoms: _77  and  _80
REMARK   34  A    between atoms: _80  and  _81
REMARK   35  A    between atoms: _86  and  _88
REMARK   36  A    between atoms: _88  and  _89
REMARK   37  A    between atoms: _92  and  _94
REMARK   38  A    between atoms: _94  and  _95
REMARK   39  A    between atoms: _97  and  _99
REMARK   40  A    between atoms: _99  and  _100
REMARK   41  A    between atoms: _103  and  _105
REMARK   42  A    between atoms: _105  and  _106
REMARK   43  A    between atoms: _105  and  _108
REMARK   44  A    between atoms: _108  and  _109
REMARK   45  A    between atoms: _109  and  _110
REMARK   46  A    between atoms: _112  and  _114
REMARK   47  A    between atoms: _114  and  _115
REMARK   48  A    between atoms: _114  and  _117
REMARK   49  A    between atoms: _117  and  _118
REMARK   50  A    between atoms: _118  and  _119
REMARK   51  A    between atoms: _122  and  _124
REMARK   52  A    between atoms: _124  and  _125
REMARK   53  A    between atoms: _124  and  _127
REMARK   54  A    between atoms: _127  and  _128
REMARK   55  A    between atoms: _133  and  _135
REMARK   56  A    between atoms: _135  and  _136
REMARK   57  A    between atoms: _135  and  _138
REMARK   58  A    between atoms: _138  and  _139
REMARK   59  A    between atoms: _142  and  _144
REMARK   60  A    between atoms: _144  and  _145
REMARK   61  A    between atoms: _144  and  _147
REMARK   62  A    between atoms: _147  and  _148
REMARK   63  A    between atoms: _153  and  _154
REMARK   64  A    between atoms: _156  and  _158
REMARK   65  A    between atoms: _158  and  _159
REMARK   66  A    between atoms: _158  and  _161
REMARK   67  A    between atoms: _161  and  _162
REMARK   68  A    between atoms: _162  and  _163
REMARK   69  A    between atoms: _163  and  _164
REMARK   70  A    between atoms: _173  and  _175
REMARK   71  A    between atoms: _175  and  _176
REMARK   72  A    between atoms: _175  and  _178
REMARK   73  A    between atoms: _178  and  _179
REMARK   74  A    between atoms: _184  and  _186
REMARK   75  A    between atoms: _186  and  _187
REMARK   76  A    between atoms: _186  and  _189
REMARK   77  A    between atoms: _189  and  _190
REMARK   78  A    between atoms: _192  and  _194
REMARK   79  A    between atoms: _194  and  _195
REMARK   80  A    between atoms: _194  and  _197
REMARK   81  A    between atoms: _197  and  _198
REMARK   82  A    between atoms: _200  and  _202
REMARK   83  A    between atoms: _202  and  _203
REMARK   84  A    between atoms: _202  and  _205
REMARK   85  A    between atoms: _205  and  _206
REMARK   86  A    between atoms: _206  and  _207
REMARK   87  A    between atoms: _210  and  _212
REMARK   88  A    between atoms: _212  and  _213
REMARK   89  A    between atoms: _212  and  _215
REMARK   90  A    between atoms: _215  and  _216
REMARK   91  A    between atoms: _216  and  _217
REMARK   92  A    between atoms: _217  and  _218
REMARK   93  A    between atoms: _227  and  _229
REMARK   94  A    between atoms: _229  and  _230
REMARK   95  A    between atoms: _229  and  _232
REMARK   96  A    between atoms: _235  and  _237
REMARK   97  A    between atoms: _237  and  _238
REMARK   98  A    between atoms: _237  and  _240
REMARK   99  A    between atoms: _240  and  _241
REMARK  100  A    between atoms: _244  and  _246
REMARK  101  A    between atoms: _246  and  _247
REMARK  102  A    between atoms: _246  and  _249
REMARK  103  A    between atoms: _252  and  _254
REMARK  104  A    between atoms: _254  and  _255
REMARK  105  A    between atoms: _254  and  _257
REMARK  106  A    between atoms: _257  and  _258
REMARK  107  A    between atoms: _261  and  _263
REMARK  108  A    between atoms: _263  and  _264
REMARK  109  A    between atoms: _267  and  _269
REMARK  110  A    between atoms: _269  and  _270
REMARK  111  A    between atoms: _269  and  _272
REMARK  112  A    between atoms: _272  and  _273
REMARK  113  A    between atoms: _278  and  _280
REMARK  114  A    between atoms: _280  and  _281
REMARK  115  A    between atoms: _280  and  _283
REMARK  116  A    between atoms: _283  and  _284
REMARK  117  A    between atoms: _284  and  _285
REMARK  118  A    between atoms: _288  and  _290
REMARK  119  A    between atoms: _290  and  _291
REMARK  120  A    between atoms: _290  and  _293
REMARK  121  A    between atoms: _293  and  _294
REMARK  122  A    between atoms: _299  and  _301
REMARK  123  A    between atoms: _301  and  _302
REMARK  124  A    between atoms: _301  and  _304
REMARK  125  A    between atoms: _304  and  _305
REMARK  126  A    between atoms: _315  and  _317
REMARK  127  A    between atoms: _317  and  _318
REMARK  128  A    between atoms: _317  and  _320
REMARK  129  A    between atoms: _320  and  _321
REMARK  130  A    between atoms: _324  and  _326
REMARK  131  A    between atoms: _326  and  _327
REMARK  132  A    between atoms: _326  and  _329
REMARK  133  A    between atoms: _329  and  _330
REMARK  134  A    between atoms: _335  and  _337
REMARK  135  A    between atoms: _337  and  _338
REMARK  136  A    between atoms: _337  and  _340
REMARK  137  A    between atoms: _340  and  _341
REMARK  138  A    between atoms: _341  and  _342
REMARK  139  A    between atoms: _345  and  _347
REMARK  140  A    between atoms: _347  and  _348
REMARK  141  A    between atoms: _351  and  _353
REMARK  142  A    between atoms: _353  and  _354
REMARK  143  A    between atoms: _353  and  _356
REMARK  144  A    between atoms: _356  and  _357
REMARK  145  A    between atoms: _359  and  _361
REMARK  146  A    between atoms: _361  and  _362
REMARK  147  A    between atoms: _361  and  _364
REMARK  148  A    between atoms: _364  and  _365
REMARK  149  A    between atoms: _365  and  _366
REMARK  150  A    between atoms: _369  and  _371
REMARK  151  A    between atoms: _371  and  _372
REMARK  152  A    between atoms: _371  and  _374
REMARK  153  A    between atoms: _374  and  _375
REMARK  154  A    between atoms: _380  and  _381
REMARK  155  A    between atoms: _383  and  _385
REMARK  156  A    between atoms: _385  and  _386
REMARK  157  A    between atoms: _385  and  _388
REMARK  158  A    between atoms: _388  and  _389
REMARK  159  A    between atoms: _392  and  _394
REMARK  160  A    between atoms: _394  and  _395
REMARK  161  A    between atoms: _394  and  _397
REMARK  162  A    between atoms: _397  and  _398
REMARK  163  A    between atoms: _403  and  _405
REMARK  164  A    between atoms: _405  and  _406
REMARK  165  A    between atoms: _405  and  _408
REMARK  166  A    between atoms: _408  and  _409
REMARK  167  A    between atoms: _412  and  _414
REMARK  168  A    between atoms: _414  and  _415
REMARK  169  A    between atoms: _414  and  _417
REMARK  170  A    between atoms: _417  and  _418
REMARK  171  A    between atoms: _423  and  _424
REMARK  172  A    between atoms: _426  and  _428
REMARK  173  A    between atoms: _428  and  _429
REMARK  174  A    between atoms: _428  and  _431
REMARK  175  A    between atoms: _431  and  _432
REMARK  176  A    between atoms: _432  and  _433
REMARK  177  A    between atoms: _433  and  _434
REMARK  178  A    between atoms: _443  and  _445
REMARK  179  A    between atoms: _445  and  _446
REMARK  180  A    between atoms: _445  and  _448
REMARK  181  A    between atoms: _451  and  _453
REMARK  182  A    between atoms: _453  and  _454
REMARK  183  A    between atoms: _457  and  _459
REMARK  184  A    between atoms: _459  and  _460
REMARK  185  A    between atoms: _459  and  _462
REMARK  186  A    between atoms: _465  and  _467
REMARK  187  A    between atoms: _467  and  _468
REMARK  188  A    between atoms: _467  and  _470
REMARK  189  A    between atoms: _470  and  _471
REMARK  190  A    between atoms: _473  and  _475
REMARK  191  A    between atoms: _475  and  _476
REMARK  192  A    between atoms: _475  and  _478
REMARK  193  A    between atoms: _478  and  _479
REMARK  194  A    between atoms: _479  and  _480
REMARK  195  A    between atoms: _483  and  _485
REMARK  196  A    between atoms: _485  and  _486
REMARK  197  A    between atoms: _485  and  _488
REMARK  198  A    between atoms: _488  and  _489
REMARK  199  A    between atoms: _492  and  _494
REMARK  200  A    between atoms: _494  and  _495
REMARK  201  A    between atoms: _494  and  _497
REMARK  202  A    between atoms: _497  and  _498
REMARK  203  A    between atoms: _504  and  _506
REMARK  204  A    between atoms: _506  and  _507
REMARK  205  A    between atoms: _506  and  _509
REMARK  206  A    between atoms: _509  and  _510
REMARK  207  A    between atoms: _513  and  _515
REMARK  208  A    between atoms: _515  and  _516
REMARK  209  A    between atoms: _519  and  _521
REMARK  210  A    between atoms: _521  and  _522
REMARK  211  A    between atoms: _521  and  _524
REMARK  212  A    between atoms: _524  and  _525
REMARK  213  A    between atoms: _530  and  _531
REMARK  214  A    between atoms: _533  and  _535
REMARK  215  A    between atoms: _535  and  _536
REMARK  216  A    between atoms: _535  and  _538
REMARK  217  A    between atoms: _538  and  _539
REMARK  218  A    between atoms: _541  and  _543
REMARK  219  A    between atoms: _543  and  _544
REMARK  220  A    between atoms: _543  and  _546
REMARK  221  A    between atoms: _546  and  _547
REMARK  222  A    between atoms: _550  and  _552
REMARK  223  A    between atoms: _552  and  _553
REMARK  224  A    between atoms: _552  and  _555
REMARK  225  A    between atoms: _555  and  _556
REMARK  226  A    between atoms: _558  and  _560
REMARK  227  A    between atoms: _560  and  _561
REMARK  228  A    between atoms: _560  and  _563
REMARK  229  A    between atoms: _563  and  _564
REMARK  230  A    between atoms: _567  and  _569
REMARK  231  A    between atoms: _569  and  _570
REMARK  232  A    between atoms: _569  and  _572
REMARK  233  A    between atoms: _572  and  _573
REMARK  234  A    between atoms: _575  and  _577
REMARK  235  A    between atoms: _577  and  _578
REMARK  236  A    between atoms: _577  and  _580
REMARK  237  A    between atoms: _580  and  _581
REMARK  238  A    between atoms: _584  and  _586
REMARK  239  A    between atoms: _586  and  _587
REMARK  240  A    between atoms: _586  and  _589
REMARK  241  A    between atoms: _589  and  _590
REMARK  242  A    between atoms: _595  and  _597
REMARK  243  A    between atoms: _597  and  _598
REMARK  244  A    between atoms: _597  and  _600
REMARK  245  A    between atoms: _600  and  _601
REMARK  246  A    between atoms: _603  and  _605
REMARK  247  A    between atoms: _605  and  _606
REMARK  248  A    between atoms: _605  and  _608
REMARK  249  A    between atoms: _608  and  _609
REMARK  250  A    between atoms: _615  and  _617
REMARK  251  A    between atoms: _617  and  _618
REMARK  252  A    between atoms: _617  and  _620
REMARK  253  A    between atoms: _620  and  _621
REMARK  254  A    between atoms: _623  and  _625
REMARK  255  A    between atoms: _625  and  _626
REMARK  256  A    between atoms: _625  and  _628
REMARK  257  A    between atoms: _628  and  _629
REMARK  258  A    between atoms: _635  and  _637
REMARK  259  A    between atoms: _637  and  _638
REMARK  260  A    between atoms: _637  and  _640
REMARK  261  A    between atoms: _640  and  _641
REMARK  262  A    between atoms: _643  and  _645
REMARK  263  A    between atoms: _645  and  _646
REMARK  264  A    between atoms: _645  and  _648
REMARK  265  A    between atoms: _648  and  _649
REMARK  266  A    between atoms: _654  and  _656
REMARK  267  A    between atoms: _656  and  _657
REMARK  268  A    between atoms: _656  and  _659
REMARK  269  A    between atoms: _659  and  _660
REMARK  270  A    between atoms: _663  and  _665
REMARK  271  A    between atoms: _665  and  _666
REMARK  272  A    between atoms: _665  and  _668
REMARK  273  A    between atoms: _668  and  _669
REMARK  274  A    between atoms: _672  and  _674
REMARK  275  A    between atoms: _674  and  _675
REMARK  276  A    between atoms: _674  and  _677
REMARK  277  A    between atoms: _677  and  _678
REMARK  278  A    between atoms: _678  and  _679
REMARK  279  A    between atoms: _684  and  _686
REMARK  280  A    between atoms: _686  and  _687
REMARK  281  A    between atoms: _690  and  _692
REMARK  282  A    between atoms: _692  and  _693
REMARK  283  A    between atoms: _692  and  _695
REMARK  284  A    between atoms: _698  and  _700
REMARK  285  A    between atoms: _700  and  _701
REMARK  286  A    between atoms: _700  and  _703
REMARK  287  A    between atoms: _703  and  _704
REMARK  288  A    between atoms: _707  and  _709
REMARK  289  A    between atoms: _709  and  _710
REMARK  290  A    between atoms: _709  and  _712
REMARK  291  A    between atoms: _712  and  _713
REMARK  292  A    between atoms: _713  and  _714
REMARK  293  A    between atoms: _714  and  _715
REMARK  294  A    between atoms: _724  and  _726
REMARK  295  A    between atoms: _726  and  _727
REMARK  296  A    between atoms: _726  and  _729
REMARK  297  A    between atoms: _729  and  _730
REMARK  298  A    between atoms: _730  and  _731
REMARK  299  A    between atoms: _731  and  _732
REMARK  300  A    between atoms: _732  and  _733
REMARK                            x       y       z     vdW  Elec       q    Type
REMARK                         _______ _______ _______ _____ _____    ______ ____
ROOT
ATOM      1  O   HOH     1      89.177  15.697  26.139  0.00  0.00    +0.000 OA
ENDROOT
TORSDOF 0
REMARK  Name = ../refined-set-2016/4fys/4fys_pocket.pdb
REMARK  300 active torsions:
REMARK  status: ('A' for Active; 'I' for Inactive)
REMARK    1  A    between atoms: _1  and  _3
REMARK    2  A    between atoms: _3  and  _4
REMARK    3  A    between atoms: _3  and  _6
REMARK    4  A    between atoms: _6  and  _7
REMARK    5  A    between atoms: _7  and  _8
REMARK    6  A    between atoms: _13  and  _15
REMARK    7  A    between atoms: _15  and  _16
REMARK    8  A    between atoms: _15  and  _18
REMARK    9  A    between atoms: _18  and  _19
REMARK   10  A    between atoms: _19  and  _20
REMARK   11  A    between atoms: _22  and  _24
REMARK   12  A    between atoms: _24  and  _25
REMARK   13  A    between atoms: _24  and  _27
REMARK   14  A    between atoms: _27  and  _28
REMARK   15  A    between atoms: _28  and  _29
REMARK   16  A    between atoms: _34  and  _36
REMARK   17  A    between atoms: _36  and  _37
REMARK   18  A    between atoms: _40  and  _42
REMARK   19  A    between atoms: _42  and  _43
REMARK   20  A    between atoms: _42  and  _45
REMARK   21  A    between atoms: _45  and  _46
REMARK   22  A    between atoms: _51  and  _52
REMARK   23  A    between atoms: _54  and  _56
REMARK   24  A    between atoms: _56  and  _57
REMARK   25  A    between atoms: _56  and  _59
REMARK   26  A    between atoms: _59  and  _60
REMARK   27  A    between atoms: _63  and  _65
REMARK   28  A    between atoms: _65  and  _66
REMARK   29  A    between atoms: _65  and  _68
REMARK   30  A    between atoms: _68  and  _69
REMARK   31  A    between atoms: _75  and  _77
REMARK   32  A    between atoms: _77  and  _78
REMARK   33  A    between atoms: _77  and  _80
REMARK   34  A    between atoms: _80  and  _81
REMARK   35  A    between atoms: _86  and  _88
REMARK   36  A    between atoms: _88  and  _89
REMARK   37  A    between atoms: _92  and  _94
REMARK   38  A    between atoms: _94  and  _95
REMARK   39  A    between atoms: _97  and  _99
REMARK   40  A    between atoms: _99  and  _100
REMARK   41  A    between atoms: _103  and  _105
REMARK   42  A    between atoms: _105  and  _106
REMARK   43  A    between atoms: _105  and  _108
REMARK   44  A    between atoms: _108  and  _109
REMARK   45  A    between atoms: _109  and  _110
REMARK   46  A    between atoms: _112  and  _114
REMARK   47  A    between atoms: _114  and  _115
REMARK   48  A    between atoms: _114  and  _117
REMARK   49  A    between atoms: _117  and  _118
REMARK   50  A    between atoms: _118  and  _119
REMARK   51  A    between atoms: _122  and  _124
REMARK   52  A    between atoms: _124  and  _125
REMARK   53  A    between atoms: _124  and  _127
REMARK   54  A    between atoms: _127  and  _128
REMARK   55  A    between atoms: _133  and  _135
REMARK   56  A    between atoms: _135  and  _136
REMARK   57  A    between atoms: _135  and  _138
REMARK   58  A    between atoms: _138  and  _139
REMARK   59  A    between atoms: _142  and  _144
REMARK   60  A    between atoms: _144  and  _145
REMARK   61  A    between atoms: _144  and  _147
REMARK   62  A    between atoms: _147  and  _148
REMARK   63  A    between atoms: _153  and  _154
REMARK   64  A    between atoms: _156  and  _158
REMARK   65  A    between atoms: _158  and  _159
REMARK   66  A    between atoms: _158  and  _161
REMARK   67  A    between atoms: _161  and  _162
REMARK   68  A    between atoms: _162  and  _163
REMARK   69  A    between atoms: _163  and  _164
REMARK   70  A    between atoms: _173  and  _175
REMARK   71  A    between atoms: _175  and  _176
REMARK   72  A    between atoms: _175  and  _178
REMARK   73  A    between atoms: _178  and  _179
REMARK   74  A    between atoms: _184  and  _186
REMARK   75  A    between atoms: _186  and  _187
REMARK   76  A    between atoms: _186  and  _189
REMARK   77  A    between atoms: _189  and  _190
REMARK   78  A    between atoms: _192  and  _194
REMARK   79  A    between atoms: _194  and  _195
REMARK   80  A    between atoms: _194  and  _197
REMARK   81  A    between atoms: _197  and  _198
REMARK   82  A    between atoms: _200  and  _202
REMARK   83  A    between atoms: _202  and  _203
REMARK   84  A    between atoms: _202  and  _205
REMARK   85  A    between atoms: _205  and  _206
REMARK   86  A    between atoms: _206  and  _207
REMARK   87  A    between atoms: _210  and  _212
REMARK   88  A    between atoms: _212  and  _213
REMARK   89  A    between atoms: _212  and  _215
REMARK   90  A    between atoms: _215  and  _216
REMARK   91  A    between atoms: _216  and  _217
REMARK   92  A    between atoms: _217  and  _218
REMARK   93  A    between atoms: _227  and  _229
REMARK   94  A    between atoms: _229  and  _230
REMARK   95  A    between atoms: _229  and  _232
REMARK   96  A    between atoms: _235  and  _237
REMARK   97  A    between atoms: _237  and  _238
REMARK   98  A    between atoms: _237  and  _240
REMARK   99  A    between atoms: _240  and  _241
REMARK  100  A    between atoms: _244  and  _246
REMARK  101  A    between atoms: _246  and  _247
REMARK  102  A    between atoms: _246  and  _249
REMARK  103  A    between atoms: _252  and  _254
REMARK  104  A    between atoms: _254  and  _255
REMARK  105  A    between atoms: _254  and  _257
REMARK  106  A    between atoms: _257  and  _258
REMARK  107  A    between atoms: _261  and  _263
REMARK  108  A    between atoms: _263  and  _264
REMARK  109  A    between atoms: _267  and  _269
REMARK  110  A    between atoms: _269  and  _270
REMARK  111  A    between atoms: _269  and  _272
REMARK  112  A    between atoms: _272  and  _273
REMARK  113  A    between atoms: _278  and  _280
REMARK  114  A    between atoms: _280  and  _281
REMARK  115  A    between atoms: _280  and  _283
REMARK  116  A    between atoms: _283  and  _284
REMARK  117  A    between atoms: _284  and  _285
REMARK  118  A    between atoms: _288  and  _290
REMARK  119  A    between atoms: _290  and  _291
REMARK  120  A    between atoms: _290  and  _293
REMARK  121  A    between atoms: _293  and  _294
REMARK  122  A    between atoms: _299  and  _301
REMARK  123  A    between atoms: _301  and  _302
REMARK  124  A    between atoms: _301  and  _304
REMARK  125  A    between atoms: _304  and  _305
REMARK  126  A    between atoms: _315  and  _317
REMARK  127  A    between atoms: _317  and  _318
REMARK  128  A    between atoms: _317  and  _320
REMARK  129  A    between atoms: _320  and  _321
REMARK  130  A    between atoms: _324  and  _326
REMARK  131  A    between atoms: _326  and  _327
REMARK  132  A    between atoms: _326  and  _329
REMARK  133  A    between atoms: _329  and  _330
REMARK  134  A    between atoms: _335  and  _337
REMARK  135  A    between atoms: _337  and  _338
REMARK  136  A    between atoms: _337  and  _340
REMARK  137  A    between atoms: _340  and  _341
REMARK  138  A    between atoms: _341  and  _342
REMARK  139  A    between atoms: _345  and  _347
REMARK  140  A    between atoms: _347  and  _348
REMARK  141  A    between atoms: _351  and  _353
REMARK  142  A    between atoms: _353  and  _354
REMARK  143  A    between atoms: _353  and  _356
REMARK  144  A    between atoms: _356  and  _357
REMARK  145  A    between atoms: _359  and  _361
REMARK  146  A    between atoms: _361  and  _362
REMARK  147  A    between atoms: _361  and  _364
REMARK  148  A    between atoms: _364  and  _365
REMARK  149  A    between atoms: _365  and  _366
REMARK  150  A    between atoms: _369  and  _371
REMARK  151  A    between atoms: _371  and  _372
REMARK  152  A    between atoms: _371  and  _374
REMARK  153  A    between atoms: _374  and  _375
REMARK  154  A    between atoms: _380  and  _381
REMARK  155  A    between atoms: _383  and  _385
REMARK  156  A    between atoms: _385  and  _386
REMARK  157  A    between atoms: _385  and  _388
REMARK  158  A    between atoms: _388  and  _389
REMARK  159  A    between atoms: _392  and  _394
REMARK  160  A    between atoms: _394  and  _395
REMARK  161  A    between atoms: _394  and  _397
REMARK  162  A    between atoms: _397  and  _398
REMARK  163  A    between atoms: _403  and  _405
REMARK  164  A    between atoms: _405  and  _406
REMARK  165  A    between atoms: _405  and  _408
REMARK  166  A    between atoms: _408  and  _409
REMARK  167  A    between atoms: _412  and  _414
REMARK  168  A    between atoms: _414  and  _415
REMARK  169  A    between atoms: _414  and  _417
REMARK  170  A    between atoms: _417  and  _418
REMARK  171  A    between atoms: _423  and  _424
REMARK  172  A    between atoms: _426  and  _428
REMARK  173  A    between atoms: _428  and  _429
REMARK  174  A    between atoms: _428  and  _431
REMARK  175  A    between atoms: _431  and  _432
REMARK  176  A    between atoms: _432  and  _433
REMARK  177  A    between atoms: _433  and  _434
REMARK  178  A    between atoms: _443  and  _445
REMARK  179  A    between atoms: _445  and  _446
REMARK  180  A    between atoms: _445  and  _448
REMARK  181  A    between atoms: _451  and  _453
REMARK  182  A    between atoms: _453  and  _454
REMARK  183  A    between atoms: _457  and  _459
REMARK  184  A    between atoms: _459  and  _460
REMARK  185  A    between atoms: _459  and  _462
REMARK  186  A    between atoms: _465  and  _467
REMARK  187  A    between atoms: _467  and  _468
REMARK  188  A    between atoms: _467  and  _470
REMARK  189  A    between atoms: _470  and  _471
REMARK  190  A    between atoms: _473  and  _475
REMARK  191  A    between atoms: _475  and  _476
REMARK  192  A    between atoms: _475  and  _478
REMARK  193  A    between atoms: _478  and  _479
REMARK  194  A    between atoms: _479  and  _480
REMARK  195  A    between atoms: _483  and  _485
REMARK  196  A    between atoms: _485  and  _486
REMARK  197  A    between atoms: _485  and  _488
REMARK  198  A    between atoms: _488  and  _489
REMARK  199  A    between atoms: _492  and  _494
REMARK  200  A    between atoms: _494  and  _495
REMARK  201  A    between atoms: _494  and  _497
REMARK  202  A    between atoms: _497  and  _498
REMARK  203  A    between atoms: _504  and  _506
REMARK  204  A    between atoms: _506  and  _507
REMARK  205  A    between atoms: _506  and  _509
REMARK  206  A    between atoms: _509  and  _510
REMARK  207  A    between atoms: _513  and  _515
REMARK  208  A    between atoms: _515  and  _516
REMARK  209  A    between atoms: _519  and  _521
REMARK  210  A    between atoms: _521  and  _522
REMARK  211  A    between atoms: _521  and  _524
REMARK  212  A    between atoms: _524  and  _525
REMARK  213  A    between atoms: _530  and  _531
REMARK  214  A    between atoms: _533  and  _535
REMARK  215  A    between atoms: _535  and  _536
REMARK  216  A    between atoms: _535  and  _538
REMARK  217  A    between atoms: _538  and  _539
REMARK  218  A    between atoms: _541  and  _543
REMARK  219  A    between atoms: _543  and  _544
REMARK  220  A    between atoms: _543  and  _546
REMARK  221  A    between atoms: _546  and  _547
REMARK  222  A    between atoms: _550  and  _552
REMARK  223  A    between atoms: _552  and  _553
REMARK  224  A    between atoms: _552  and  _555
REMARK  225  A    between atoms: _555  and  _556
REMARK  226  A    between atoms: _558  and  _560
REMARK  227  A    between atoms: _560  and  _561
REMARK  228  A    between atoms: _560  and  _563
REMARK  229  A    between atoms: _563  and  _564
REMARK  230  A    between atoms: _567  and  _569
REMARK  231  A    between atoms: _569  and  _570
REMARK  232  A    between atoms: _569  and  _572
REMARK  233  A    between atoms: _572  and  _573
REMARK  234  A    between atoms: _575  and  _577
REMARK  235  A    between atoms: _577  and  _578
REMARK  236  A    between atoms: _577  and  _580
REMARK  237  A    between atoms: _580  and  _581
REMARK  238  A    between atoms: _584  and  _586
REMARK  239  A    between atoms: _586  and  _587
REMARK  240  A    between atoms: _586  and  _589
REMARK  241  A    between atoms: _589  and  _590
REMARK  242  A    between atoms: _595  and  _597
REMARK  243  A    between atoms: _597  and  _598
REMARK  244  A    between atoms: _597  and  _600
REMARK  245  A    between atoms: _600  and  _601
REMARK  246  A    between atoms: _603  and  _605
REMARK  247  A    between atoms: _605  and  _606
REMARK  248  A    between atoms: _605  and  _608
REMARK  249  A    between atoms: _608  and  _609
REMARK  250  A    between atoms: _615  and  _617
REMARK  251  A    between atoms: _617  and  _618
REMARK  252  A    between atoms: _617  and  _620
REMARK  253  A    between atoms: _620  and  _621
REMARK  254  A    between atoms: _623  and  _625
REMARK  255  A    between atoms: _625  and  _626
REMARK  256  A    between atoms: _625  and  _628
REMARK  257  A    between atoms: _628  and  _629
REMARK  258  A    between atoms: _635  and  _637
REMARK  259  A    between atoms: _637  and  _638
REMARK  260  A    between atoms: _637  and  _640
REMARK  261  A    between atoms: _640  and  _641
REMARK  262  A    between atoms: _643  and  _645
REMARK  263  A    between atoms: _645  and  _646
REMARK  264  A    between atoms: _645  and  _648
REMARK  265  A    between atoms: _648  and  _649
REMARK  266  A    between atoms: _654  and  _656
REMARK  267  A    between atoms: _656  and  _657
REMARK  268  A    between atoms: _656  and  _659
REMARK  269  A    between atoms: _659  and  _660
REMARK  270  A    between atoms: _663  and  _665
REMARK  271  A    between atoms: _665  and  _666
REMARK  272  A    between atoms: _665  and  _668
REMARK  273  A    between atoms: _668  and  _669
REMARK  274  A    between atoms: _672  and  _674
REMARK  275  A    between atoms: _674  and  _675
REMARK  276  A    between atoms: _674  and  _677
REMARK  277  A    between atoms: _677  and  _678
REMARK  278  A    between atoms: _678  and  _679
REMARK  279  A    between atoms: _684  and  _686
REMARK  280  A    between atoms: _686  and  _687
REMARK  281  A    between atoms: _690  and  _692
REMARK  282  A    between atoms: _692  and  _693
REMARK  283  A    between atoms: _692  and  _695
REMARK  284  A    between atoms: _698  and  _700
REMARK  285  A    between atoms: _700  and  _701
REMARK  286  A    between atoms: _700  and  _703
REMARK  287  A    between atoms: _703  and  _704
REMARK  288  A    between atoms: _707  and  _709
REMARK  289  A    between atoms: _709  and  _710
REMARK  290  A    between atoms: _709  and  _712
REMARK  291  A    between atoms: _712  and  _713
REMARK  292  A    between atoms: _713  and  _714
REMARK  293  A    between atoms: _714  and  _715
REMARK  294  A    between atoms: _724  and  _726
REMARK  295  A    between atoms: _726  and  _727
REMARK  296  A    between atoms: _726  and  _729
REMARK  297  A    between atoms: _729  and  _730
REMARK  298  A    between atoms: _730  and  _731
REMARK  299  A    between atoms: _731  and  _732
REMARK  300  A    between atoms: _732  and  _733
REMARK                            x       y       z     vdW  Elec       q    Type
REMARK                         _______ _______ _______ _____ _____    ______ ____
ROOT
ATOM      1  O   HOH     1     115.647  13.896  20.584  0.00  0.00    +0.000 OA
ENDROOT
TORSDOF 0
REMARK  Name = ../refined-set-2016/4fys/4fys_pocket.pdb
REMARK  300 active torsions:
REMARK  status: ('A' for Active; 'I' for Inactive)
REMARK    1  A    between atoms: _1  and  _3
REMARK    2  A    between atoms: _3  and  _4
REMARK    3  A    between atoms: _3  and  _6
REMARK    4  A    between atoms: _6  and  _7
REMARK    5  A    between atoms: _7  and  _8
REMARK    6  A    between atoms: _13  and  _15
REMARK    7  A    between atoms: _15  and  _16
REMARK    8  A    between atoms: _15  and  _18
REMARK    9  A    between atoms: _18  and  _19
REMARK   10  A    between atoms: _19  and  _20
REMARK   11  A    between atoms: _22  and  _24
REMARK   12  A    between atoms: _24  and  _25
REMARK   13  A    between atoms: _24  and  _27
REMARK   14  A    between atoms: _27  and  _28
REMARK   15  A    between atoms: _28  and  _29
REMARK   16  A    between atoms: _34  and  _36
REMARK   17  A    between atoms: _36  and  _37
REMARK   18  A    between atoms: _40  and  _42
REMARK   19  A    between atoms: _42  and  _43
REMARK   20  A    between atoms: _42  and  _45
REMARK   21  A    between atoms: _45  and  _46
REMARK   22  A    between atoms: _51  and  _52
REMARK   23  A    between atoms: _54  and  _56
REMARK   24  A    between atoms: _56  and  _57
REMARK   25  A    between atoms: _56  and  _59
REMARK   26  A    between atoms: _59  and  _60
REMARK   27  A    between atoms: _63  and  _65
REMARK   28  A    between atoms: _65  and  _66
REMARK   29  A    between atoms: _65  and  _68
REMARK   30  A    between atoms: _68  and  _69
REMARK   31  A    between atoms: _75  and  _77
REMARK   32  A    between atoms: _77  and  _78
REMARK   33  A    between atoms: _77  and  _80
REMARK   34  A    between atoms: _80  and  _81
REMARK   35  A    between atoms: _86  and  _88
REMARK   36  A    between atoms: _88  and  _89
REMARK   37  A    between atoms: _92  and  _94
REMARK   38  A    between atoms: _94  and  _95
REMARK   39  A    between atoms: _97  and  _99
REMARK   40  A    between atoms: _99  and  _100
REMARK   41  A    between atoms: _103  and  _105
REMARK   42  A    between atoms: _105  and  _106
REMARK   43  A    between atoms: _105  and  _108
REMARK   44  A    between atoms: _108  and  _109
REMARK   45  A    between atoms: _109  and  _110
REMARK   46  A    between atoms: _112  and  _114
REMARK   47  A    between atoms: _114  and  _115
REMARK   48  A    between atoms: _114  and  _117
REMARK   49  A    between atoms: _117  and  _118
REMARK   50  A    between atoms: _118  and  _119
REMARK   51  A    between atoms: _122  and  _124
REMARK   52  A    between atoms: _124  and  _125
REMARK   53  A    between atoms: _124  and  _127
REMARK   54  A    between atoms: _127  and  _128
REMARK   55  A    between atoms: _133  and  _135
REMARK   56  A    between atoms: _135  and  _136
REMARK   57  A    between atoms: _135  and  _138
REMARK   58  A    between atoms: _138  and  _139
REMARK   59  A    between atoms: _142  and  _144
REMARK   60  A    between atoms: _144  and  _145
REMARK   61  A    between atoms: _144  and  _147
REMARK   62  A    between atoms: _147  and  _148
REMARK   63  A    between atoms: _153  and  _154
REMARK   64  A    between atoms: _156  and  _158
REMARK   65  A    between atoms: _158  and  _159
REMARK   66  A    between atoms: _158  and  _161
REMARK   67  A    between atoms: _161  and  _162
REMARK   68  A    between atoms: _162  and  _163
REMARK   69  A    between atoms: _163  and  _164
REMARK   70  A    between atoms: _173  and  _175
REMARK   71  A    between atoms: _175  and  _176
REMARK   72  A    between atoms: _175  and  _178
REMARK   73  A    between atoms: _178  and  _179
REMARK   74  A    between atoms: _184  and  _186
REMARK   75  A    between atoms: _186  and  _187
REMARK   76  A    between atoms: _186  and  _189
REMARK   77  A    between atoms: _189  and  _190
REMARK   78  A    between atoms: _192  and  _194
REMARK   79  A    between atoms: _194  and  _195
REMARK   80  A    between atoms: _194  and  _197
REMARK   81  A    between atoms: _197  and  _198
REMARK   82  A    between atoms: _200  and  _202
REMARK   83  A    between atoms: _202  and  _203
REMARK   84  A    between atoms: _202  and  _205
REMARK   85  A    between atoms: _205  and  _206
REMARK   86  A    between atoms: _206  and  _207
REMARK   87  A    between atoms: _210  and  _212
REMARK   88  A    between atoms: _212  and  _213
REMARK   89  A    between atoms: _212  and  _215
REMARK   90  A    between atoms: _215  and  _216
REMARK   91  A    between atoms: _216  and  _217
REMARK   92  A    between atoms: _217  and  _218
REMARK   93  A    between atoms: _227  and  _229
REMARK   94  A    between atoms: _229  and  _230
REMARK   95  A    between atoms: _229  and  _232
REMARK   96  A    between atoms: _235  and  _237
REMARK   97  A    between atoms: _237  and  _238
REMARK   98  A    between atoms: _237  and  _240
REMARK   99  A    between atoms: _240  and  _241
REMARK  100  A    between atoms: _244  and  _246
REMARK  101  A    between atoms: _246  and  _247
REMARK  102  A    between atoms: _246  and  _249
REMARK  103  A    between atoms: _252  and  _254
REMARK  104  A    between atoms: _254  and  _255
REMARK  105  A    between atoms: _254  and  _257
REMARK  106  A    between atoms: _257  and  _258
REMARK  107  A    between atoms: _261  and  _263
REMARK  108  A    between atoms: _263  and  _264
REMARK  109  A    between atoms: _267  and  _269
REMARK  110  A    between atoms: _269  and  _270
REMARK  111  A    between atoms: _269  and  _272
REMARK  112  A    between atoms: _272  and  _273
REMARK  113  A    between atoms: _278  and  _280
REMARK  114  A    between atoms: _280  and  _281
REMARK  115  A    between atoms: _280  and  _283
REMARK  116  A    between atoms: _283  and  _284
REMARK  117  A    between atoms: _284  and  _285
REMARK  118  A    between atoms: _288  and  _290
REMARK  119  A    between atoms: _290  and  _291
REMARK  120  A    between atoms: _290  and  _293
REMARK  121  A    between atoms: _293  and  _294
REMARK  122  A    between atoms: _299  and  _301
REMARK  123  A    between atoms: _301  and  _302
REMARK  124  A    between atoms: _301  and  _304
REMARK  125  A    between atoms: _304  and  _305
REMARK  126  A    between atoms: _315  and  _317
REMARK  127  A    between atoms: _317  and  _318
REMARK  128  A    between atoms: _317  and  _320
REMARK  129  A    between atoms: _320  and  _321
REMARK  130  A    between atoms: _324  and  _326
REMARK  131  A    between atoms: _326  and  _327
REMARK  132  A    between atoms: _326  and  _329
REMARK  133  A    between atoms: _329  and  _330
REMARK  134  A    between atoms: _335  and  _337
REMARK  135  A    between atoms: _337  and  _338
REMARK  136  A    between atoms: _337  and  _340
REMARK  137  A    between atoms: _340  and  _341
REMARK  138  A    between atoms: _341  and  _342
REMARK  139  A    between atoms: _345  and  _347
REMARK  140  A    between atoms: _347  and  _348
REMARK  141  A    between atoms: _351  and  _353
REMARK  142  A    between atoms: _353  and  _354
REMARK  143  A    between atoms: _353  and  _356
REMARK  144  A    between atoms: _356  and  _357
REMARK  145  A    between atoms: _359  and  _361
REMARK  146  A    between atoms: _361  and  _362
REMARK  147  A    between atoms: _361  and  _364
REMARK  148  A    between atoms: _364  and  _365
REMARK  149  A    between atoms: _365  and  _366
REMARK  150  A    between atoms: _369  and  _371
REMARK  151  A    between atoms: _371  and  _372
REMARK  152  A    between atoms: _371  and  _374
REMARK  153  A    between atoms: _374  and  _375
REMARK  154  A    between atoms: _380  and  _381
REMARK  155  A    between atoms: _383  and  _385
REMARK  156  A    between atoms: _385  and  _386
REMARK  157  A    between atoms: _385  and  _388
REMARK  158  A    between atoms: _388  and  _389
REMARK  159  A    between atoms: _392  and  _394
REMARK  160  A    between atoms: _394  and  _395
REMARK  161  A    between atoms: _394  and  _397
REMARK  162  A    between atoms: _397  and  _398
REMARK  163  A    between atoms: _403  and  _405
REMARK  164  A    between atoms: _405  and  _406
REMARK  165  A    between atoms: _405  and  _408
REMARK  166  A    between atoms: _408  and  _409
REMARK  167  A    between atoms: _412  and  _414
REMARK  168  A    between atoms: _414  and  _415
REMARK  169  A    between atoms: _414  and  _417
REMARK  170  A    between atoms: _417  and  _418
REMARK  171  A    between atoms: _423  and  _424
REMARK  172  A    between atoms: _426  and  _428
REMARK  173  A    between atoms: _428  and  _429
REMARK  174  A    between atoms: _428  and  _431
REMARK  175  A    between atoms: _431  and  _432
REMARK  176  A    between atoms: _432  and  _433
REMARK  177  A    between atoms: _433  and  _434
REMARK  178  A    between atoms: _443  and  _445
REMARK  179  A    between atoms: _445  and  _446
REMARK  180  A    between atoms: _445  and  _448
REMARK  181  A    between atoms: _451  and  _453
REMARK  182  A    between atoms: _453  and  _454
REMARK  183  A    between atoms: _457  and  _459
REMARK  184  A    between atoms: _459  and  _460
REMARK  185  A    between atoms: _459  and  _462
REMARK  186  A    between atoms: _465  and  _467
REMARK  187  A    between atoms: _467  and  _468
REMARK  188  A    between atoms: _467  and  _470
REMARK  189  A    between atoms: _470  and  _471
REMARK  190  A    between atoms: _473  and  _475
REMARK  191  A    between atoms: _475  and  _476
REMARK  192  A    between atoms: _475  and  _478
REMARK  193  A    between atoms: _478  and  _479
REMARK  194  A    between atoms: _479  and  _480
REMARK  195  A    between atoms: _483  and  _485
REMARK  196  A    between atoms: _485  and  _486
REMARK  197  A    between atoms: _485  and  _488
REMARK  198  A    between atoms: _488  and  _489
REMARK  199  A    between atoms: _492  and  _494
REMARK  200  A    between atoms: _494  and  _495
REMARK  201  A    between atoms: _494  and  _497
REMARK  202  A    between atoms: _497  and  _498
REMARK  203  A    between atoms: _504  and  _506
REMARK  204  A    between atoms: _506  and  _507
REMARK  205  A    between atoms: _506  and  _509
REMARK  206  A    between atoms: _509  and  _510
REMARK  207  A    between atoms: _513  and  _515
REMARK  208  A    between atoms: _515  and  _516
REMARK  209  A    between atoms: _519  and  _521
REMARK  210  A    between atoms: _521  and  _522
REMARK  211  A    between atoms: _521  and  _524
REMARK  212  A    between atoms: _524  and  _525
REMARK  213  A    between atoms: _530  and  _531
REMARK  214  A    between atoms: _533  and  _535
REMARK  215  A    between atoms: _535  and  _536
REMARK  216  A    between atoms: _535  and  _538
REMARK  217  A    between atoms: _538  and  _539
REMARK  218  A    between atoms: _541  and  _543
REMARK  219  A    between atoms: _543  and  _544
REMARK  220  A    between atoms: _543  and  _546
REMARK  221  A    between atoms: _546  and  _547
REMARK  222  A    between atoms: _550  and  _552
REMARK  223  A    between atoms: _552  and  _553
REMARK  224  A    between atoms: _552  and  _555
REMARK  225  A    between atoms: _555  and  _556
REMARK  226  A    between atoms: _558  and  _560
REMARK  227  A    between atoms: _560  and  _561
REMARK  228  A    between atoms: _560  and  _563
REMARK  229  A    between atoms: _563  and  _564
REMARK  230  A    between atoms: _567  and  _569
REMARK  231  A    between atoms: _569  and  _570
REMARK  232  A    between atoms: _569  and  _572
REMARK  233  A    between atoms: _572  and  _573
REMARK  234  A    between atoms: _575  and  _577
REMARK  235  A    between atoms: _577  and  _578
REMARK  236  A    between atoms: _577  and  _580
REMARK  237  A    between atoms: _580  and  _581
REMARK  238  A    between atoms: _584  and  _586
REMARK  239  A    between atoms: _586  and  _587
REMARK  240  A    between atoms: _586  and  _589
REMARK  241  A    between atoms: _589  and  _590
REMARK  242  A    between atoms: _595  and  _597
REMARK  243  A    between atoms: _597  and  _598
REMARK  244  A    between atoms: _597  and  _600
REMARK  245  A    between atoms: _600  and  _601
REMARK  246  A    between atoms: _603  and  _605
REMARK  247  A    between atoms: _605  and  _606
REMARK  248  A    between atoms: _605  and  _608
REMARK  249  A    between atoms: _608  and  _609
REMARK  250  A    between atoms: _615  and  _617
REMARK  251  A    between atoms: _617  and  _618
REMARK  252  A    between atoms: _617  and  _620
REMARK  253  A    between atoms: _620  and  _621
REMARK  254  A    between atoms: _623  and  _625
REMARK  255  A    between atoms: _625  and  _626
REMARK  256  A    between atoms: _625  and  _628
REMARK  257  A    between atoms: _628  and  _629
REMARK  258  A    between atoms: _635  and  _637
REMARK  259  A    between atoms: _637  and  _638
REMARK  260  A    between atoms: _637  and  _640
REMARK  261  A    between atoms: _640  and  _641
REMARK  262  A    between atoms: _643  and  _645
REMARK  263  A    between atoms: _645  and  _646
REMARK  264  A    between atoms: _645  and  _648
REMARK  265  A    between atoms: _648  and  _649
REMARK  266  A    between atoms: _654  and  _656
REMARK  267  A    between atoms: _656  and  _657
REMARK  268  A    between atoms: _656  and  _659
REMARK  269  A    between atoms: _659  and  _660
REMARK  270  A    between atoms: _663  and  _665
REMARK  271  A    between atoms: _665  and  _666
REMARK  272  A    between atoms: _665  and  _668
REMARK  273  A    between atoms: _668  and  _669
REMARK  274  A    between atoms: _672  and  _674
REMARK  275  A    between atoms: _674  and  _675
REMARK  276  A    between atoms: _674  and  _677
REMARK  277  A    between atoms: _677  and  _678
REMARK  278  A    between atoms: _678  and  _679
REMARK  279  A    between atoms: _684  and  _686
REMARK  280  A    between atoms: _686  and  _687
REMARK  281  A    between atoms: _690  and  _692
REMARK  282  A    between atoms: _692  and  _693
REMARK  283  A    between atoms: _692  and  _695
REMARK  284  A    between atoms: _698  and  _700
REMARK  285  A    between atoms: _700  and  _701
REMARK  286  A    between atoms: _700  and  _703
REMARK  287  A    between atoms: _703  and  _704
REMARK  288  A    between atoms: _707  and  _709
REMARK  289  A    between atoms: _709  and  _710
REMARK  290  A    between atoms: _709  and  _712
REMARK  291  A    between atoms: _712  and  _713
REMARK  292  A    between atoms: _713  and  _714
REMARK  293  A    between atoms: _714  and  _715
REMARK  294  A    between atoms: _724  and  _726
REMARK  295  A    between atoms: _726  and  _727
REMARK  296  A    between atoms: _726  and  _729
REMARK  297  A    between atoms: _729  and  _730
REMARK  298  A    between atoms: _730  and  _731
REMARK  299  A    between atoms: _731  and  _732
REMARK  300  A    between atoms: _732  and  _733
REMARK                            x       y       z     vdW  Elec       q    Type
REMARK                         _______ _______ _______ _____ _____    ______ ____
ROOT
ATOM      1  O   HOH     1     111.755   9.696  20.661  0.00  0.00    +0.000 OA
ENDROOT
TORSDOF 0
REMARK  Name = ../refined-set-2016/4fys/4fys_pocket.pdb
REMARK  300 active torsions:
REMARK  status: ('A' for Active; 'I' for Inactive)
REMARK    1  A    between atoms: _1  and  _3
REMARK    2  A    between atoms: _3  and  _4
REMARK    3  A    between atoms: _3  and  _6
REMARK    4  A    between atoms: _6  and  _7
REMARK    5  A    between atoms: _7  and  _8
REMARK    6  A    between atoms: _13  and  _15
REMARK    7  A    between atoms: _15  and  _16
REMARK    8  A    between atoms: _15  and  _18
REMARK    9  A    between atoms: _18  and  _19
REMARK   10  A    between atoms: _19  and  _20
REMARK   11  A    between atoms: _22  and  _24
REMARK   12  A    between atoms: _24  and  _25
REMARK   13  A    between atoms: _24  and  _27
REMARK   14  A    between atoms: _27  and  _28
REMARK   15  A    between atoms: _28  and  _29
REMARK   16  A    between atoms: _34  and  _36
REMARK   17  A    between atoms: _36  and  _37
REMARK   18  A    between atoms: _40  and  _42
REMARK   19  A    between atoms: _42  and  _43
REMARK   20  A    between atoms: _42  and  _45
REMARK   21  A    between atoms: _45  and  _46
REMARK   22  A    between atoms: _51  and  _52
REMARK   23  A    between atoms: _54  and  _56
REMARK   24  A    between atoms: _56  and  _57
REMARK   25  A    between atoms: _56  and  _59
REMARK   26  A    between atoms: _59  and  _60
REMARK   27  A    between atoms: _63  and  _65
REMARK   28  A    between atoms: _65  and  _66
REMARK   29  A    between atoms: _65  and  _68
REMARK   30  A    between atoms: _68  and  _69
REMARK   31  A    between atoms: _75  and  _77
REMARK   32  A    between atoms: _77  and  _78
REMARK   33  A    between atoms: _77  and  _80
REMARK   34  A    between atoms: _80  and  _81
REMARK   35  A    between atoms: _86  and  _88
REMARK   36  A    between atoms: _88  and  _89
REMARK   37  A    between atoms: _92  and  _94
REMARK   38  A    between atoms: _94  and  _95
REMARK   39  A    between atoms: _97  and  _99
REMARK   40  A    between atoms: _99  and  _100
REMARK   41  A    between atoms: _103  and  _105
REMARK   42  A    between atoms: _105  and  _106
REMARK   43  A    between atoms: _105  and  _108
REMARK   44  A    between atoms: _108  and  _109
REMARK   45  A    between atoms: _109  and  _110
REMARK   46  A    between atoms: _112  and  _114
REMARK   47  A    between atoms: _114  and  _115
REMARK   48  A    between atoms: _114  and  _117
REMARK   49  A    between atoms: _117  and  _118
REMARK   50  A    between atoms: _118  and  _119
REMARK   51  A    between atoms: _122  and  _124
REMARK   52  A    between atoms: _124  and  _125
REMARK   53  A    between atoms: _124  and  _127
REMARK   54  A    between atoms: _127  and  _128
REMARK   55  A    between atoms: _133  and  _135
REMARK   56  A    between atoms: _135  and  _136
REMARK   57  A    between atoms: _135  and  _138
REMARK   58  A    between atoms: _138  and  _139
REMARK   59  A    between atoms: _142  and  _144
REMARK   60  A    between atoms: _144  and  _145
REMARK   61  A    between atoms: _144  and  _147
REMARK   62  A    between atoms: _147  and  _148
REMARK   63  A    between atoms: _153  and  _154
REMARK   64  A    between atoms: _156  and  _158
REMARK   65  A    between atoms: _158  and  _159
REMARK   66  A    between atoms: _158  and  _161
REMARK   67  A    between atoms: _161  and  _162
REMARK   68  A    between atoms: _162  and  _163
REMARK   69  A    between atoms: _163  and  _164
REMARK   70  A    between atoms: _173  and  _175
REMARK   71  A    between atoms: _175  and  _176
REMARK   72  A    between atoms: _175  and  _178
REMARK   73  A    between atoms: _178  and  _179
REMARK   74  A    between atoms: _184  and  _186
REMARK   75  A    between atoms: _186  and  _187
REMARK   76  A    between atoms: _186  and  _189
REMARK   77  A    between atoms: _189  and  _190
REMARK   78  A    between atoms: _192  and  _194
REMARK   79  A    between atoms: _194  and  _195
REMARK   80  A    between atoms: _194  and  _197
REMARK   81  A    between atoms: _197  and  _198
REMARK   82  A    between atoms: _200  and  _202
REMARK   83  A    between atoms: _202  and  _203
REMARK   84  A    between atoms: _202  and  _205
REMARK   85  A    between atoms: _205  and  _206
REMARK   86  A    between atoms: _206  and  _207
REMARK   87  A    between atoms: _210  and  _212
REMARK   88  A    between atoms: _212  and  _213
REMARK   89  A    between atoms: _212  and  _215
REMARK   90  A    between atoms: _215  and  _216
REMARK   91  A    between atoms: _216  and  _217
REMARK   92  A    between atoms: _217  and  _218
REMARK   93  A    between atoms: _227  and  _229
REMARK   94  A    between atoms: _229  and  _230
REMARK   95  A    between atoms: _229  and  _232
REMARK   96  A    between atoms: _235  and  _237
REMARK   97  A    between atoms: _237  and  _238
REMARK   98  A    between atoms: _237  and  _240
REMARK   99  A    between atoms: _240  and  _241
REMARK  100  A    between atoms: _244  and  _246
REMARK  101  A    between atoms: _246  and  _247
REMARK  102  A    between atoms: _246  and  _249
REMARK  103  A    between atoms: _252  and  _254
REMARK  104  A    between atoms: _254  and  _255
REMARK  105  A    between atoms: _254  and  _257
REMARK  106  A    between atoms: _257  and  _258
REMARK  107  A    between atoms: _261  and  _263
REMARK  108  A    between atoms: _263  and  _264
REMARK  109  A    between atoms: _267  and  _269
REMARK  110  A    between atoms: _269  and  _270
REMARK  111  A    between atoms: _269  and  _272
REMARK  112  A    between atoms: _272  and  _273
REMARK  113  A    between atoms: _278  and  _280
REMARK  114  A    between atoms: _280  and  _281
REMARK  115  A    between atoms: _280  and  _283
REMARK  116  A    between atoms: _283  and  _284
REMARK  117  A    between atoms: _284  and  _285
REMARK  118  A    between atoms: _288  and  _290
REMARK  119  A    between atoms: _290  and  _291
REMARK  120  A    between atoms: _290  and  _293
REMARK  121  A    between atoms: _293  and  _294
REMARK  122  A    between atoms: _299  and  _301
REMARK  123  A    between atoms: _301  and  _302
REMARK  124  A    between atoms: _301  and  _304
REMARK  125  A    between atoms: _304  and  _305
REMARK  126  A    between atoms: _315  and  _317
REMARK  127  A    between atoms: _317  and  _318
REMARK  128  A    between atoms: _317  and  _320
REMARK  129  A    between atoms: _320  and  _321
REMARK  130  A    between atoms: _324  and  _326
REMARK  131  A    between atoms: _326  and  _327
REMARK  132  A    between atoms: _326  and  _329
REMARK  133  A    between atoms: _329  and  _330
REMARK  134  A    between atoms: _335  and  _337
REMARK  135  A    between atoms: _337  and  _338
REMARK  136  A    between atoms: _337  and  _340
REMARK  137  A    between atoms: _340  and  _341
REMARK  138  A    between atoms: _341  and  _342
REMARK  139  A    between atoms: _345  and  _347
REMARK  140  A    between atoms: _347  and  _348
REMARK  141  A    between atoms: _351  and  _353
REMARK  142  A    between atoms: _353  and  _354
REMARK  143  A    between atoms: _353  and  _356
REMARK  144  A    between atoms: _356  and  _357
REMARK  145  A    between atoms: _359  and  _361
REMARK  146  A    between atoms: _361  and  _362
REMARK  147  A    between atoms: _361  and  _364
REMARK  148  A    between atoms: _364  and  _365
REMARK  149  A    between atoms: _365  and  _366
REMARK  150  A    between atoms: _369  and  _371
REMARK  151  A    between atoms: _371  and  _372
REMARK  152  A    between atoms: _371  and  _374
REMARK  153  A    between atoms: _374  and  _375
REMARK  154  A    between atoms: _380  and  _381
REMARK  155  A    between atoms: _383  and  _385
REMARK  156  A    between atoms: _385  and  _386
REMARK  157  A    between atoms: _385  and  _388
REMARK  158  A    between atoms: _388  and  _389
REMARK  159  A    between atoms: _392  and  _394
REMARK  160  A    between atoms: _394  and  _395
REMARK  161  A    between atoms: _394  and  _397
REMARK  162  A    between atoms: _397  and  _398
REMARK  163  A    between atoms: _403  and  _405
REMARK  164  A    between atoms: _405  and  _406
REMARK  165  A    between atoms: _405  and  _408
REMARK  166  A    between atoms: _408  and  _409
REMARK  167  A    between atoms: _412  and  _414
REMARK  168  A    between atoms: _414  and  _415
REMARK  169  A    between atoms: _414  and  _417
REMARK  170  A    between atoms: _417  and  _418
REMARK  171  A    between atoms: _423  and  _424
REMARK  172  A    between atoms: _426  and  _428
REMARK  173  A    between atoms: _428  and  _429
REMARK  174  A    between atoms: _428  and  _431
REMARK  175  A    between atoms: _431  and  _432
REMARK  176  A    between atoms: _432  and  _433
REMARK  177  A    between atoms: _433  and  _434
REMARK  178  A    between atoms: _443  and  _445
REMARK  179  A    between atoms: _445  and  _446
REMARK  180  A    between atoms: _445  and  _448
REMARK  181  A    between atoms: _451  and  _453
REMARK  182  A    between atoms: _453  and  _454
REMARK  183  A    between atoms: _457  and  _459
REMARK  184  A    between atoms: _459  and  _460
REMARK  185  A    between atoms: _459  and  _462
REMARK  186  A    between atoms: _465  and  _467
REMARK  187  A    between atoms: _467  and  _468
REMARK  188  A    between atoms: _467  and  _470
REMARK  189  A    between atoms: _470  and  _471
REMARK  190  A    between atoms: _473  and  _475
REMARK  191  A    between atoms: _475  and  _476
REMARK  192  A    between atoms: _475  and  _478
REMARK  193  A    between atoms: _478  and  _479
REMARK  194  A    between atoms: _479  and  _480
REMARK  195  A    between atoms: _483  and  _485
REMARK  196  A    between atoms: _485  and  _486
REMARK  197  A    between atoms: _485  and  _488
REMARK  198  A    between atoms: _488  and  _489
REMARK  199  A    between atoms: _492  and  _494
REMARK  200  A    between atoms: _494  and  _495
REMARK  201  A    between atoms: _494  and  _497
REMARK  202  A    between atoms: _497  and  _498
REMARK  203  A    between atoms: _504  and  _506
REMARK  204  A    between atoms: _506  and  _507
REMARK  205  A    between atoms: _506  and  _509
REMARK  206  A    between atoms: _509  and  _510
REMARK  207  A    between atoms: _513  and  _515
REMARK  208  A    between atoms: _515  and  _516
REMARK  209  A    between atoms: _519  and  _521
REMARK  210  A    between atoms: _521  and  _522
REMARK  211  A    between atoms: _521  and  _524
REMARK  212  A    between atoms: _524  and  _525
REMARK  213  A    between atoms: _530  and  _531
REMARK  214  A    between atoms: _533  and  _535
REMARK  215  A    between atoms: _535  and  _536
REMARK  216  A    between atoms: _535  and  _538
REMARK  217  A    between atoms: _538  and  _539
REMARK  218  A    between atoms: _541  and  _543
REMARK  219  A    between atoms: _543  and  _544
REMARK  220  A    between atoms: _543  and  _546
REMARK  221  A    between atoms: _546  and  _547
REMARK  222  A    between atoms: _550  and  _552
REMARK  223  A    between atoms: _552  and  _553
REMARK  224  A    between atoms: _552  and  _555
REMARK  225  A    between atoms: _555  and  _556
REMARK  226  A    between atoms: _558  and  _560
REMARK  227  A    between atoms: _560  and  _561
REMARK  228  A    between atoms: _560  and  _563
REMARK  229  A    between atoms: _563  and  _564
REMARK  230  A    between atoms: _567  and  _569
REMARK  231  A    between atoms: _569  and  _570
REMARK  232  A    between atoms: _569  and  _572
REMARK  233  A    between atoms: _572  and  _573
REMARK  234  A    between atoms: _575  and  _577
REMARK  235  A    between atoms: _577  and  _578
REMARK  236  A    between atoms: _577  and  _580
REMARK  237  A    between atoms: _580  and  _581
REMARK  238  A    between atoms: _584  and  _586
REMARK  239  A    between atoms: _586  and  _587
REMARK  240  A    between atoms: _586  and  _589
REMARK  241  A    between atoms: _589  and  _590
REMARK  242  A    between atoms: _595  and  _597
REMARK  243  A    between atoms: _597  and  _598
REMARK  244  A    between atoms: _597  and  _600
REMARK  245  A    between atoms: _600  and  _601
REMARK  246  A    between atoms: _603  and  _605
REMARK  247  A    between atoms: _605  and  _606
REMARK  248  A    between atoms: _605  and  _608
REMARK  249  A    between atoms: _608  and  _609
REMARK  250  A    between atoms: _615  and  _617
REMARK  251  A    between atoms: _617  and  _618
REMARK  252  A    between atoms: _617  and  _620
REMARK  253  A    between atoms: _620  and  _621
REMARK  254  A    between atoms: _623  and  _625
REMARK  255  A    between atoms: _625  and  _626
REMARK  256  A    between atoms: _625  and  _628
REMARK  257  A    between atoms: _628  and  _629
REMARK  258  A    between atoms: _635  and  _637
REMARK  259  A    between atoms: _637  and  _638
REMARK  260  A    between atoms: _637  and  _640
REMARK  261  A    between atoms: _640  and  _641
REMARK  262  A    between atoms: _643  and  _645
REMARK  263  A    between atoms: _645  and  _646
REMARK  264  A    between atoms: _645  and  _648
REMARK  265  A    between atoms: _648  and  _649
REMARK  266  A    between atoms: _654  and  _656
REMARK  267  A    between atoms: _656  and  _657
REMARK  268  A    between atoms: _656  and  _659
REMARK  269  A    between atoms: _659  and  _660
REMARK  270  A    between atoms: _663  and  _665
REMARK  271  A    between atoms: _665  and  _666
REMARK  272  A    between atoms: _665  and  _668
REMARK  273  A    between atoms: _668  and  _669
REMARK  274  A    between atoms: _672  and  _674
REMARK  275  A    between atoms: _674  and  _675
REMARK  276  A    between atoms: _674  and  _677
REMARK  277  A    between atoms: _677  and  _678
REMARK  278  A    between atoms: _678  and  _679
REMARK  279  A    between atoms: _684  and  _686
REMARK  280  A    between atoms: _686  and  _687
REMARK  281  A    between atoms: _690  and  _692
REMARK  282  A    between atoms: _692  and  _693
REMARK  283  A    between atoms: _692  and  _695
REMARK  284  A    between atoms: _698  and  _700
REMARK  285  A    between atoms: _700  and  _701
REMARK  286  A    between atoms: _700  and  _703
REMARK  287  A    between atoms: _703  and  _704
REMARK  288  A    between atoms: _707  and  _709
REMARK  289  A    between atoms: _709  and  _710
REMARK  290  A    between atoms: _709  and  _712
REMARK  291  A    between atoms: _712  and  _713
REMARK  292  A    between atoms: _713  and  _714
REMARK  293  A    between atoms: _714  and  _715
REMARK  294  A    between atoms: _724  and  _726
REMARK  295  A    between atoms: _726  and  _727
REMARK  296  A    between atoms: _726  and  _729
REMARK  297  A    between atoms: _729  and  _730
REMARK  298  A    between atoms: _730  and  _731
REMARK  299  A    between atoms: _731  and  _732
REMARK  300  A    between atoms: _732  and  _733
REMARK                            x       y       z     vdW  Elec       q    Type
REMARK                         _______ _______ _______ _____ _____    ______ ____
ROOT
ATOM      1  O   HOH     1     100.961  25.905  10.716  0.00  0.00    +0.000 OA
ENDROOT
TORSDOF 0
REMARK  Name = ../refined-set-2016/4fys/4fys_pocket.pdb
REMARK  300 active torsions:
REMARK  status: ('A' for Active; 'I' for Inactive)
REMARK    1  A    between atoms: _1  and  _3
REMARK    2  A    between atoms: _3  and  _4
REMARK    3  A    between atoms: _3  and  _6
REMARK    4  A    between atoms: _6  and  _7
REMARK    5  A    between atoms: _7  and  _8
REMARK    6  A    between atoms: _13  and  _15
REMARK    7  A    between atoms: _15  and  _16
REMARK    8  A    between atoms: _15  and  _18
REMARK    9  A    between atoms: _18  and  _19
REMARK   10  A    between atoms: _19  and  _20
REMARK   11  A    between atoms: _22  and  _24
REMARK   12  A    between atoms: _24  and  _25
REMARK   13  A    between atoms: _24  and  _27
REMARK   14  A    between atoms: _27  and  _28
REMARK   15  A    between atoms: _28  and  _29
REMARK   16  A    between atoms: _34  and  _36
REMARK   17  A    between atoms: _36  and  _37
REMARK   18  A    between atoms: _40  and  _42
REMARK   19  A    between atoms: _42  and  _43
REMARK   20  A    between atoms: _42  and  _45
REMARK   21  A    between atoms: _45  and  _46
REMARK   22  A    between atoms: _51  and  _52
REMARK   23  A    between atoms: _54  and  _56
REMARK   24  A    between atoms: _56  and  _57
REMARK   25  A    between atoms: _56  and  _59
REMARK   26  A    between atoms: _59  and  _60
REMARK   27  A    between atoms: _63  and  _65
REMARK   28  A    between atoms: _65  and  _66
REMARK   29  A    between atoms: _65  and  _68
REMARK   30  A    between atoms: _68  and  _69
REMARK   31  A    between atoms: _75  and  _77
REMARK   32  A    between atoms: _77  and  _78
REMARK   33  A    between atoms: _77  and  _80
REMARK   34  A    between atoms: _80  and  _81
REMARK   35  A    between atoms: _86  and  _88
REMARK   36  A    between atoms: _88  and  _89
REMARK   37  A    between atoms: _92  and  _94
REMARK   38  A    between atoms: _94  and  _95
REMARK   39  A    between atoms: _97  and  _99
REMARK   40  A    between atoms: _99  and  _100
REMARK   41  A    between atoms: _103  and  _105
REMARK   42  A    between atoms: _105  and  _106
REMARK   43  A    between atoms: _105  and  _108
REMARK   44  A    between atoms: _108  and  _109
REMARK   45  A    between atoms: _109  and  _110
REMARK   46  A    between atoms: _112  and  _114
REMARK   47  A    between atoms: _114  and  _115
REMARK   48  A    between atoms: _114  and  _117
REMARK   49  A    between atoms: _117  and  _118
REMARK   50  A    between atoms: _118  and  _119
REMARK   51  A    between atoms: _122  and  _124
REMARK   52  A    between atoms: _124  and  _125
REMARK   53  A    between atoms: _124  and  _127
REMARK   54  A    between atoms: _127  and  _128
REMARK   55  A    between atoms: _133  and  _135
REMARK   56  A    between atoms: _135  and  _136
REMARK   57  A    between atoms: _135  and  _138
REMARK   58  A    between atoms: _138  and  _139
REMARK   59  A    between atoms: _142  and  _144
REMARK   60  A    between atoms: _144  and  _145
REMARK   61  A    between atoms: _144  and  _147
REMARK   62  A    between atoms: _147  and  _148
REMARK   63  A    between atoms: _153  and  _154
REMARK   64  A    between atoms: _156  and  _158
REMARK   65  A    between atoms: _158  and  _159
REMARK   66  A    between atoms: _158  and  _161
REMARK   67  A    between atoms: _161  and  _162
REMARK   68  A    between atoms: _162  and  _163
REMARK   69  A    between atoms: _163  and  _164
REMARK   70  A    between atoms: _173  and  _175
REMARK   71  A    between atoms: _175  and  _176
REMARK   72  A    between atoms: _175  and  _178
REMARK   73  A    between atoms: _178  and  _179
REMARK   74  A    between atoms: _184  and  _186
REMARK   75  A    between atoms: _186  and  _187
REMARK   76  A    between atoms: _186  and  _189
REMARK   77  A    between atoms: _189  and  _190
REMARK   78  A    between atoms: _192  and  _194
REMARK   79  A    between atoms: _194  and  _195
REMARK   80  A    between atoms: _194  and  _197
REMARK   81  A    between atoms: _197  and  _198
REMARK   82  A    between atoms: _200  and  _202
REMARK   83  A    between atoms: _202  and  _203
REMARK   84  A    between atoms: _202  and  _205
REMARK   85  A    between atoms: _205  and  _206
REMARK   86  A    between atoms: _206  and  _207
REMARK   87  A    between atoms: _210  and  _212
REMARK   88  A    between atoms: _212  and  _213
REMARK   89  A    between atoms: _212  and  _215
REMARK   90  A    between atoms: _215  and  _216
REMARK   91  A    between atoms: _216  and  _217
REMARK   92  A    between atoms: _217  and  _218
REMARK   93  A    between atoms: _227  and  _229
REMARK   94  A    between atoms: _229  and  _230
REMARK   95  A    between atoms: _229  and  _232
REMARK   96  A    between atoms: _235  and  _237
REMARK   97  A    between atoms: _237  and  _238
REMARK   98  A    between atoms: _237  and  _240
REMARK   99  A    between atoms: _240  and  _241
REMARK  100  A    between atoms: _244  and  _246
REMARK  101  A    between atoms: _246  and  _247
REMARK  102  A    between atoms: _246  and  _249
REMARK  103  A    between atoms: _252  and  _254
REMARK  104  A    between atoms: _254  and  _255
REMARK  105  A    between atoms: _254  and  _257
REMARK  106  A    between atoms: _257  and  _258
REMARK  107  A    between atoms: _261  and  _263
REMARK  108  A    between atoms: _263  and  _264
REMARK  109  A    between atoms: _267  and  _269
REMARK  110  A    between atoms: _269  and  _270
REMARK  111  A    between atoms: _269  and  _272
REMARK  112  A    between atoms: _272  and  _273
REMARK  113  A    between atoms: _278  and  _280
REMARK  114  A    between atoms: _280  and  _281
REMARK  115  A    between atoms: _280  and  _283
REMARK  116  A    between atoms: _283  and  _284
REMARK  117  A    between atoms: _284  and  _285
REMARK  118  A    between atoms: _288  and  _290
REMARK  119  A    between atoms: _290  and  _291
REMARK  120  A    between atoms: _290  and  _293
REMARK  121  A    between atoms: _293  and  _294
REMARK  122  A    between atoms: _299  and  _301
REMARK  123  A    between atoms: _301  and  _302
REMARK  124  A    between atoms: _301  and  _304
REMARK  125  A    between atoms: _304  and  _305
REMARK  126  A    between atoms: _315  and  _317
REMARK  127  A    between atoms: _317  and  _318
REMARK  128  A    between atoms: _317  and  _320
REMARK  129  A    between atoms: _320  and  _321
REMARK  130  A    between atoms: _324  and  _326
REMARK  131  A    between atoms: _326  and  _327
REMARK  132  A    between atoms: _326  and  _329
REMARK  133  A    between atoms: _329  and  _330
REMARK  134  A    between atoms: _335  and  _337
REMARK  135  A    between atoms: _337  and  _338
REMARK  136  A    between atoms: _337  and  _340
REMARK  137  A    between atoms: _340  and  _341
REMARK  138  A    between atoms: _341  and  _342
REMARK  139  A    between atoms: _345  and  _347
REMARK  140  A    between atoms: _347  and  _348
REMARK  141  A    between atoms: _351  and  _353
REMARK  142  A    between atoms: _353  and  _354
REMARK  143  A    between atoms: _353  and  _356
REMARK  144  A    between atoms: _356  and  _357
REMARK  145  A    between atoms: _359  and  _361
REMARK  146  A    between atoms: _361  and  _362
REMARK  147  A    between atoms: _361  and  _364
REMARK  148  A    between atoms: _364  and  _365
REMARK  149  A    between atoms: _365  and  _366
REMARK  150  A    between atoms: _369  and  _371
REMARK  151  A    between atoms: _371  and  _372
REMARK  152  A    between atoms: _371  and  _374
REMARK  153  A    between atoms: _374  and  _375
REMARK  154  A    between atoms: _380  and  _381
REMARK  155  A    between atoms: _383  and  _385
REMARK  156  A    between atoms: _385  and  _386
REMARK  157  A    between atoms: _385  and  _388
REMARK  158  A    between atoms: _388  and  _389
REMARK  159  A    between atoms: _392  and  _394
REMARK  160  A    between atoms: _394  and  _395
REMARK  161  A    between atoms: _394  and  _397
REMARK  162  A    between atoms: _397  and  _398
REMARK  163  A    between atoms: _403  and  _405
REMARK  164  A    between atoms: _405  and  _406
REMARK  165  A    between atoms: _405  and  _408
REMARK  166  A    between atoms: _408  and  _409
REMARK  167  A    between atoms: _412  and  _414
REMARK  168  A    between atoms: _414  and  _415
REMARK  169  A    between atoms: _414  and  _417
REMARK  170  A    between atoms: _417  and  _418
REMARK  171  A    between atoms: _423  and  _424
REMARK  172  A    between atoms: _426  and  _428
REMARK  173  A    between atoms: _428  and  _429
REMARK  174  A    between atoms: _428  and  _431
REMARK  175  A    between atoms: _431  and  _432
REMARK  176  A    between atoms: _432  and  _433
REMARK  177  A    between atoms: _433  and  _434
REMARK  178  A    between atoms: _443  and  _445
REMARK  179  A    between atoms: _445  and  _446
REMARK  180  A    between atoms: _445  and  _448
REMARK  181  A    between atoms: _451  and  _453
REMARK  182  A    between atoms: _453  and  _454
REMARK  183  A    between atoms: _457  and  _459
REMARK  184  A    between atoms: _459  and  _460
REMARK  185  A    between atoms: _459  and  _462
REMARK  186  A    between atoms: _465  and  _467
REMARK  187  A    between atoms: _467  and  _468
REMARK  188  A    between atoms: _467  and  _470
REMARK  189  A    between atoms: _470  and  _471
REMARK  190  A    between atoms: _473  and  _475
REMARK  191  A    between atoms: _475  and  _476
REMARK  192  A    between atoms: _475  and  _478
REMARK  193  A    between atoms: _478  and  _479
REMARK  194  A    between atoms: _479  and  _480
REMARK  195  A    between atoms: _483  and  _485
REMARK  196  A    between atoms: _485  and  _486
REMARK  197  A    between atoms: _485  and  _488
REMARK  198  A    between atoms: _488  and  _489
REMARK  199  A    between atoms: _492  and  _494
REMARK  200  A    between atoms: _494  and  _495
REMARK  201  A    between atoms: _494  and  _497
REMARK  202  A    between atoms: _497  and  _498
REMARK  203  A    between atoms: _504  and  _506
REMARK  204  A    between atoms: _506  and  _507
REMARK  205  A    between atoms: _506  and  _509
REMARK  206  A    between atoms: _509  and  _510
REMARK  207  A    between atoms: _513  and  _515
REMARK  208  A    between atoms: _515  and  _516
REMARK  209  A    between atoms: _519  and  _521
REMARK  210  A    between atoms: _521  and  _522
REMARK  211  A    between atoms: _521  and  _524
REMARK  212  A    between atoms: _524  and  _525
REMARK  213  A    between atoms: _530  and  _531
REMARK  214  A    between atoms: _533  and  _535
REMARK  215  A    between atoms: _535  and  _536
REMARK  216  A    between atoms: _535  and  _538
REMARK  217  A    between atoms: _538  and  _539
REMARK  218  A    between atoms: _541  and  _543
REMARK  219  A    between atoms: _543  and  _544
REMARK  220  A    between atoms: _543  and  _546
REMARK  221  A    between atoms: _546  and  _547
REMARK  222  A    between atoms: _550  and  _552
REMARK  223  A    between atoms: _552  and  _553
REMARK  224  A    between atoms: _552  and  _555
REMARK  225  A    between atoms: _555  and  _556
REMARK  226  A    between atoms: _558  and  _560
REMARK  227  A    between atoms: _560  and  _561
REMARK  228  A    between atoms: _560  and  _563
REMARK  229  A    between atoms: _563  and  _564
REMARK  230  A    between atoms: _567  and  _569
REMARK  231  A    between atoms: _569  and  _570
REMARK  232  A    between atoms: _569  and  _572
REMARK  233  A    between atoms: _572  and  _573
REMARK  234  A    between atoms: _575  and  _577
REMARK  235  A    between atoms: _577  and  _578
REMARK  236  A    between atoms: _577  and  _580
REMARK  237  A    between atoms: _580  and  _581
REMARK  238  A    between atoms: _584  and  _586
REMARK  239  A    between atoms: _586  and  _587
REMARK  240  A    between atoms: _586  and  _589
REMARK  241  A    between atoms: _589  and  _590
REMARK  242  A    between atoms: _595  and  _597
REMARK  243  A    between atoms: _597  and  _598
REMARK  244  A    between atoms: _597  and  _600
REMARK  245  A    between atoms: _600  and  _601
REMARK  246  A    between atoms: _603  and  _605
REMARK  247  A    between atoms: _605  and  _606
REMARK  248  A    between atoms: _605  and  _608
REMARK  249  A    between atoms: _608  and  _609
REMARK  250  A    between atoms: _615  and  _617
REMARK  251  A    between atoms: _617  and  _618
REMARK  252  A    between atoms: _617  and  _620
REMARK  253  A    between atoms: _620  and  _621
REMARK  254  A    between atoms: _623  and  _625
REMARK  255  A    between atoms: _625  and  _626
REMARK  256  A    between atoms: _625  and  _628
REMARK  257  A    between atoms: _628  and  _629
REMARK  258  A    between atoms: _635  and  _637
REMARK  259  A    between atoms: _637  and  _638
REMARK  260  A    between atoms: _637  and  _640
REMARK  261  A    between atoms: _640  and  _641
REMARK  262  A    between atoms: _643  and  _645
REMARK  263  A    between atoms: _645  and  _646
REMARK  264  A    between atoms: _645  and  _648
REMARK  265  A    between atoms: _648  and  _649
REMARK  266  A    between atoms: _654  and  _656
REMARK  267  A    between atoms: _656  and  _657
REMARK  268  A    between atoms: _656  and  _659
REMARK  269  A    between atoms: _659  and  _660
REMARK  270  A    between atoms: _663  and  _665
REMARK  271  A    between atoms: _665  and  _666
REMARK  272  A    between atoms: _665  and  _668
REMARK  273  A    between atoms: _668  and  _669
REMARK  274  A    between atoms: _672  and  _674
REMARK  275  A    between atoms: _674  and  _675
REMARK  276  A    between atoms: _674  and  _677
REMARK  277  A    between atoms: _677  and  _678
REMARK  278  A    between atoms: _678  and  _679
REMARK  279  A    between atoms: _684  and  _686
REMARK  280  A    between atoms: _686  and  _687
REMARK  281  A    between atoms: _690  and  _692
REMARK  282  A    between atoms: _692  and  _693
REMARK  283  A    between atoms: _692  and  _695
REMARK  284  A    between atoms: _698  and  _700
REMARK  285  A    between atoms: _700  and  _701
REMARK  286  A    between atoms: _700  and  _703
REMARK  287  A    between atoms: _703  and  _704
REMARK  288  A    between atoms: _707  and  _709
REMARK  289  A    between atoms: _709  and  _710
REMARK  290  A    between atoms: _709  and  _712
REMARK  291  A    between atoms: _712  and  _713
REMARK  292  A    between atoms: _713  and  _714
REMARK  293  A    between atoms: _714  and  _715
REMARK  294  A    between atoms: _724  and  _726
REMARK  295  A    between atoms: _726  and  _727
REMARK  296  A    between atoms: _726  and  _729
REMARK  297  A    between atoms: _729  and  _730
REMARK  298  A    between atoms: _730  and  _731
REMARK  299  A    between atoms: _731  and  _732
REMARK  300  A    between atoms: _732  and  _733
REMARK                            x       y       z     vdW  Elec       q    Type
REMARK                         _______ _______ _______ _____ _____    ______ ____
ROOT
ATOM      1  O   HOH     1      97.915  19.865  20.333  0.00  0.00    +0.000 OA
ENDROOT
TORSDOF 0
REMARK  Name = ../refined-set-2016/4fys/4fys_pocket.pdb
REMARK  300 active torsions:
REMARK  status: ('A' for Active; 'I' for Inactive)
REMARK    1  A    between atoms: _1  and  _3
REMARK    2  A    between atoms: _3  and  _4
REMARK    3  A    between atoms: _3  and  _6
REMARK    4  A    between atoms: _6  and  _7
REMARK    5  A    between atoms: _7  and  _8
REMARK    6  A    between atoms: _13  and  _15
REMARK    7  A    between atoms: _15  and  _16
REMARK    8  A    between atoms: _15  and  _18
REMARK    9  A    between atoms: _18  and  _19
REMARK   10  A    between atoms: _19  and  _20
REMARK   11  A    between atoms: _22  and  _24
REMARK   12  A    between atoms: _24  and  _25
REMARK   13  A    between atoms: _24  and  _27
REMARK   14  A    between atoms: _27  and  _28
REMARK   15  A    between atoms: _28  and  _29
REMARK   16  A    between atoms: _34  and  _36
REMARK   17  A    between atoms: _36  and  _37
REMARK   18  A    between atoms: _40  and  _42
REMARK   19  A    between atoms: _42  and  _43
REMARK   20  A    between atoms: _42  and  _45
REMARK   21  A    between atoms: _45  and  _46
REMARK   22  A    between atoms: _51  and  _52
REMARK   23  A    between atoms: _54  and  _56
REMARK   24  A    between atoms: _56  and  _57
REMARK   25  A    between atoms: _56  and  _59
REMARK   26  A    between atoms: _59  and  _60
REMARK   27  A    between atoms: _63  and  _65
REMARK   28  A    between atoms: _65  and  _66
REMARK   29  A    between atoms: _65  and  _68
REMARK   30  A    between atoms: _68  and  _69
REMARK   31  A    between atoms: _75  and  _77
REMARK   32  A    between atoms: _77  and  _78
REMARK   33  A    between atoms: _77  and  _80
REMARK   34  A    between atoms: _80  and  _81
REMARK   35  A    between atoms: _86  and  _88
REMARK   36  A    between atoms: _88  and  _89
REMARK   37  A    between atoms: _92  and  _94
REMARK   38  A    between atoms: _94  and  _95
REMARK   39  A    between atoms: _97  and  _99
REMARK   40  A    between atoms: _99  and  _100
REMARK   41  A    between atoms: _103  and  _105
REMARK   42  A    between atoms: _105  and  _106
REMARK   43  A    between atoms: _105  and  _108
REMARK   44  A    between atoms: _108  and  _109
REMARK   45  A    between atoms: _109  and  _110
REMARK   46  A    between atoms: _112  and  _114
REMARK   47  A    between atoms: _114  and  _115
REMARK   48  A    between atoms: _114  and  _117
REMARK   49  A    between atoms: _117  and  _118
REMARK   50  A    between atoms: _118  and  _119
REMARK   51  A    between atoms: _122  and  _124
REMARK   52  A    between atoms: _124  and  _125
REMARK   53  A    between atoms: _124  and  _127
REMARK   54  A    between atoms: _127  and  _128
REMARK   55  A    between atoms: _133  and  _135
REMARK   56  A    between atoms: _135  and  _136
REMARK   57  A    between atoms: _135  and  _138
REMARK   58  A    between atoms: _138  and  _139
REMARK   59  A    between atoms: _142  and  _144
REMARK   60  A    between atoms: _144  and  _145
REMARK   61  A    between atoms: _144  and  _147
REMARK   62  A    between atoms: _147  and  _148
REMARK   63  A    between atoms: _153  and  _154
REMARK   64  A    between atoms: _156  and  _158
REMARK   65  A    between atoms: _158  and  _159
REMARK   66  A    between atoms: _158  and  _161
REMARK   67  A    between atoms: _161  and  _162
REMARK   68  A    between atoms: _162  and  _163
REMARK   69  A    between atoms: _163  and  _164
REMARK   70  A    between atoms: _173  and  _175
REMARK   71  A    between atoms: _175  and  _176
REMARK   72  A    between atoms: _175  and  _178
REMARK   73  A    between atoms: _178  and  _179
REMARK   74  A    between atoms: _184  and  _186
REMARK   75  A    between atoms: _186  and  _187
REMARK   76  A    between atoms: _186  and  _189
REMARK   77  A    between atoms: _189  and  _190
REMARK   78  A    between atoms: _192  and  _194
REMARK   79  A    between atoms: _194  and  _195
REMARK   80  A    between atoms: _194  and  _197
REMARK   81  A    between atoms: _197  and  _198
REMARK   82  A    between atoms: _200  and  _202
REMARK   83  A    between atoms: _202  and  _203
REMARK   84  A    between atoms: _202  and  _205
REMARK   85  A    between atoms: _205  and  _206
REMARK   86  A    between atoms: _206  and  _207
REMARK   87  A    between atoms: _210  and  _212
REMARK   88  A    between atoms: _212  and  _213
REMARK   89  A    between atoms: _212  and  _215
REMARK   90  A    between atoms: _215  and  _216
REMARK   91  A    between atoms: _216  and  _217
REMARK   92  A    between atoms: _217  and  _218
REMARK   93  A    between atoms: _227  and  _229
REMARK   94  A    between atoms: _229  and  _230
REMARK   95  A    between atoms: _229  and  _232
REMARK   96  A    between atoms: _235  and  _237
REMARK   97  A    between atoms: _237  and  _238
REMARK   98  A    between atoms: _237  and  _240
REMARK   99  A    between atoms: _240  and  _241
REMARK  100  A    between atoms: _244  and  _246
REMARK  101  A    between atoms: _246  and  _247
REMARK  102  A    between atoms: _246  and  _249
REMARK  103  A    between atoms: _252  and  _254
REMARK  104  A    between atoms: _254  and  _255
REMARK  105  A    between atoms: _254  and  _257
REMARK  106  A    between atoms: _257  and  _258
REMARK  107  A    between atoms: _261  and  _263
REMARK  108  A    between atoms: _263  and  _264
REMARK  109  A    between atoms: _267  and  _269
REMARK  110  A    between atoms: _269  and  _270
REMARK  111  A    between atoms: _269  and  _272
REMARK  112  A    between atoms: _272  and  _273
REMARK  113  A    between atoms: _278  and  _280
REMARK  114  A    between atoms: _280  and  _281
REMARK  115  A    between atoms: _280  and  _283
REMARK  116  A    between atoms: _283  and  _284
REMARK  117  A    between atoms: _284  and  _285
REMARK  118  A    between atoms: _288  and  _290
REMARK  119  A    between atoms: _290  and  _291
REMARK  120  A    between atoms: _290  and  _293
REMARK  121  A    between atoms: _293  and  _294
REMARK  122  A    between atoms: _299  and  _301
REMARK  123  A    between atoms: _301  and  _302
REMARK  124  A    between atoms: _301  and  _304
REMARK  125  A    between atoms: _304  and  _305
REMARK  126  A    between atoms: _315  and  _317
REMARK  127  A    between atoms: _317  and  _318
REMARK  128  A    between atoms: _317  and  _320
REMARK  129  A    between atoms: _320  and  _321
REMARK  130  A    between atoms: _324  and  _326
REMARK  131  A    between atoms: _326  and  _327
REMARK  132  A    between atoms: _326  and  _329
REMARK  133  A    between atoms: _329  and  _330
REMARK  134  A    between atoms: _335  and  _337
REMARK  135  A    between atoms: _337  and  _338
REMARK  136  A    between atoms: _337  and  _340
REMARK  137  A    between atoms: _340  and  _341
REMARK  138  A    between atoms: _341  and  _342
REMARK  139  A    between atoms: _345  and  _347
REMARK  140  A    between atoms: _347  and  _348
REMARK  141  A    between atoms: _351  and  _353
REMARK  142  A    between atoms: _353  and  _354
REMARK  143  A    between atoms: _353  and  _356
REMARK  144  A    between atoms: _356  and  _357
REMARK  145  A    between atoms: _359  and  _361
REMARK  146  A    between atoms: _361  and  _362
REMARK  147  A    between atoms: _361  and  _364
REMARK  148  A    between atoms: _364  and  _365
REMARK  149  A    between atoms: _365  and  _366
REMARK  150  A    between atoms: _369  and  _371
REMARK  151  A    between atoms: _371  and  _372
REMARK  152  A    between atoms: _371  and  _374
REMARK  153  A    between atoms: _374  and  _375
REMARK  154  A    between atoms: _380  and  _381
REMARK  155  A    between atoms: _383  and  _385
REMARK  156  A    between atoms: _385  and  _386
REMARK  157  A    between atoms: _385  and  _388
REMARK  158  A    between atoms: _388  and  _389
REMARK  159  A    between atoms: _392  and  _394
REMARK  160  A    between atoms: _394  and  _395
REMARK  161  A    between atoms: _394  and  _397
REMARK  162  A    between atoms: _397  and  _398
REMARK  163  A    between atoms: _403  and  _405
REMARK  164  A    between atoms: _405  and  _406
REMARK  165  A    between atoms: _405  and  _408
REMARK  166  A    between atoms: _408  and  _409
REMARK  167  A    between atoms: _412  and  _414
REMARK  168  A    between atoms: _414  and  _415
REMARK  169  A    between atoms: _414  and  _417
REMARK  170  A    between atoms: _417  and  _418
REMARK  171  A    between atoms: _423  and  _424
REMARK  172  A    between atoms: _426  and  _428
REMARK  173  A    between atoms: _428  and  _429
REMARK  174  A    between atoms: _428  and  _431
REMARK  175  A    between atoms: _431  and  _432
REMARK  176  A    between atoms: _432  and  _433
REMARK  177  A    between atoms: _433  and  _434
REMARK  178  A    between atoms: _443  and  _445
REMARK  179  A    between atoms: _445  and  _446
REMARK  180  A    between atoms: _445  and  _448
REMARK  181  A    between atoms: _451  and  _453
REMARK  182  A    between atoms: _453  and  _454
REMARK  183  A    between atoms: _457  and  _459
REMARK  184  A    between atoms: _459  and  _460
REMARK  185  A    between atoms: _459  and  _462
REMARK  186  A    between atoms: _465  and  _467
REMARK  187  A    between atoms: _467  and  _468
REMARK  188  A    between atoms: _467  and  _470
REMARK  189  A    between atoms: _470  and  _471
REMARK  190  A    between atoms: _473  and  _475
REMARK  191  A    between atoms: _475  and  _476
REMARK  192  A    between atoms: _475  and  _478
REMARK  193  A    between atoms: _478  and  _479
REMARK  194  A    between atoms: _479  and  _480
REMARK  195  A    between atoms: _483  and  _485
REMARK  196  A    between atoms: _485  and  _486
REMARK  197  A    between atoms: _485  and  _488
REMARK  198  A    between atoms: _488  and  _489
REMARK  199  A    between atoms: _492  and  _494
REMARK  200  A    between atoms: _494  and  _495
REMARK  201  A    between atoms: _494  and  _497
REMARK  202  A    between atoms: _497  and  _498
REMARK  203  A    between atoms: _504  and  _506
REMARK  204  A    between atoms: _506  and  _507
REMARK  205  A    between atoms: _506  and  _509
REMARK  206  A    between atoms: _509  and  _510
REMARK  207  A    between atoms: _513  and  _515
REMARK  208  A    between atoms: _515  and  _516
REMARK  209  A    between atoms: _519  and  _521
REMARK  210  A    between atoms: _521  and  _522
REMARK  211  A    between atoms: _521  and  _524
REMARK  212  A    between atoms: _524  and  _525
REMARK  213  A    between atoms: _530  and  _531
REMARK  214  A    between atoms: _533  and  _535
REMARK  215  A    between atoms: _535  and  _536
REMARK  216  A    between atoms: _535  and  _538
REMARK  217  A    between atoms: _538  and  _539
REMARK  218  A    between atoms: _541  and  _543
REMARK  219  A    between atoms: _543  and  _544
REMARK  220  A    between atoms: _543  and  _546
REMARK  221  A    between atoms: _546  and  _547
REMARK  222  A    between atoms: _550  and  _552
REMARK  223  A    between atoms: _552  and  _553
REMARK  224  A    between atoms: _552  and  _555
REMARK  225  A    between atoms: _555  and  _556
REMARK  226  A    between atoms: _558  and  _560
REMARK  227  A    between atoms: _560  and  _561
REMARK  228  A    between atoms: _560  and  _563
REMARK  229  A    between atoms: _563  and  _564
REMARK  230  A    between atoms: _567  and  _569
REMARK  231  A    between atoms: _569  and  _570
REMARK  232  A    between atoms: _569  and  _572
REMARK  233  A    between atoms: _572  and  _573
REMARK  234  A    between atoms: _575  and  _577
REMARK  235  A    between atoms: _577  and  _578
REMARK  236  A    between atoms: _577  and  _580
REMARK  237  A    between atoms: _580  and  _581
REMARK  238  A    between atoms: _584  and  _586
REMARK  239  A    between atoms: _586  and  _587
REMARK  240  A    between atoms: _586  and  _589
REMARK  241  A    between atoms: _589  and  _590
REMARK  242  A    between atoms: _595  and  _597
REMARK  243  A    between atoms: _597  and  _598
REMARK  244  A    between atoms: _597  and  _600
REMARK  245  A    between atoms: _600  and  _601
REMARK  246  A    between atoms: _603  and  _605
REMARK  247  A    between atoms: _605  and  _606
REMARK  248  A    between atoms: _605  and  _608
REMARK  249  A    between atoms: _608  and  _609
REMARK  250  A    between atoms: _615  and  _617
REMARK  251  A    between atoms: _617  and  _618
REMARK  252  A    between atoms: _617  and  _620
REMARK  253  A    between atoms: _620  and  _621
REMARK  254  A    between atoms: _623  and  _625
REMARK  255  A    between atoms: _625  and  _626
REMARK  256  A    between atoms: _625  and  _628
REMARK  257  A    between atoms: _628  and  _629
REMARK  258  A    between atoms: _635  and  _637
REMARK  259  A    between atoms: _637  and  _638
REMARK  260  A    between atoms: _637  and  _640
REMARK  261  A    between atoms: _640  and  _641
REMARK  262  A    between atoms: _643  and  _645
REMARK  263  A    between atoms: _645  and  _646
REMARK  264  A    between atoms: _645  and  _648
REMARK  265  A    between atoms: _648  and  _649
REMARK  266  A    between atoms: _654  and  _656
REMARK  267  A    between atoms: _656  and  _657
REMARK  268  A    between atoms: _656  and  _659
REMARK  269  A    between atoms: _659  and  _660
REMARK  270  A    between atoms: _663  and  _665
REMARK  271  A    between atoms: _665  and  _666
REMARK  272  A    between atoms: _665  and  _668
REMARK  273  A    between atoms: _668  and  _669
REMARK  274  A    between atoms: _672  and  _674
REMARK  275  A    between atoms: _674  and  _675
REMARK  276  A    between atoms: _674  and  _677
REMARK  277  A    between atoms: _677  and  _678
REMARK  278  A    between atoms: _678  and  _679
REMARK  279  A    between atoms: _684  and  _686
REMARK  280  A    between atoms: _686  and  _687
REMARK  281  A    between atoms: _690  and  _692
REMARK  282  A    between atoms: _692  and  _693
REMARK  283  A    between atoms: _692  and  _695
REMARK  284  A    between atoms: _698  and  _700
REMARK  285  A    between atoms: _700  and  _701
REMARK  286  A    between atoms: _700  and  _703
REMARK  287  A    between atoms: _703  and  _704
REMARK  288  A    between atoms: _707  and  _709
REMARK  289  A    between atoms: _709  and  _710
REMARK  290  A    between atoms: _709  and  _712
REMARK  291  A    between atoms: _712  and  _713
REMARK  292  A    between atoms: _713  and  _714
REMARK  293  A    between atoms: _714  and  _715
REMARK  294  A    between atoms: _724  and  _726
REMARK  295  A    between atoms: _726  and  _727
REMARK  296  A    between atoms: _726  and  _729
REMARK  297  A    between atoms: _729  and  _730
REMARK  298  A    between atoms: _730  and  _731
REMARK  299  A    between atoms: _731  and  _732
REMARK  300  A    between atoms: _732  and  _733
REMARK                            x       y       z     vdW  Elec       q    Type
REMARK                         _______ _______ _______ _____ _____    ______ ____
ROOT
ATOM      1  O   HOH     1     109.840  10.039  24.518  0.00  0.00    +0.000 OA
ENDROOT
TORSDOF 0
REMARK  Name = ../refined-set-2016/4fys/4fys_pocket.pdb
REMARK  300 active torsions:
REMARK  status: ('A' for Active; 'I' for Inactive)
REMARK    1  A    between atoms: _1  and  _3
REMARK    2  A    between atoms: _3  and  _4
REMARK    3  A    between atoms: _3  and  _6
REMARK    4  A    between atoms: _6  and  _7
REMARK    5  A    between atoms: _7  and  _8
REMARK    6  A    between atoms: _13  and  _15
REMARK    7  A    between atoms: _15  and  _16
REMARK    8  A    between atoms: _15  and  _18
REMARK    9  A    between atoms: _18  and  _19
REMARK   10  A    between atoms: _19  and  _20
REMARK   11  A    between atoms: _22  and  _24
REMARK   12  A    between atoms: _24  and  _25
REMARK   13  A    between atoms: _24  and  _27
REMARK   14  A    between atoms: _27  and  _28
REMARK   15  A    between atoms: _28  and  _29
REMARK   16  A    between atoms: _34  and  _36
REMARK   17  A    between atoms: _36  and  _37
REMARK   18  A    between atoms: _40  and  _42
REMARK   19  A    between atoms: _42  and  _43
REMARK   20  A    between atoms: _42  and  _45
REMARK   21  A    between atoms: _45  and  _46
REMARK   22  A    between atoms: _51  and  _52
REMARK   23  A    between atoms: _54  and  _56
REMARK   24  A    between atoms: _56  and  _57
REMARK   25  A    between atoms: _56  and  _59
REMARK   26  A    between atoms: _59  and  _60
REMARK   27  A    between atoms: _63  and  _65
REMARK   28  A    between atoms: _65  and  _66
REMARK   29  A    between atoms: _65  and  _68
REMARK   30  A    between atoms: _68  and  _69
REMARK   31  A    between atoms: _75  and  _77
REMARK   32  A    between atoms: _77  and  _78
REMARK   33  A    between atoms: _77  and  _80
REMARK   34  A    between atoms: _80  and  _81
REMARK   35  A    between atoms: _86  and  _88
REMARK   36  A    between atoms: _88  and  _89
REMARK   37  A    between atoms: _92  and  _94
REMARK   38  A    between atoms: _94  and  _95
REMARK   39  A    between atoms: _97  and  _99
REMARK   40  A    between atoms: _99  and  _100
REMARK   41  A    between atoms: _103  and  _105
REMARK   42  A    between atoms: _105  and  _106
REMARK   43  A    between atoms: _105  and  _108
REMARK   44  A    between atoms: _108  and  _109
REMARK   45  A    between atoms: _109  and  _110
REMARK   46  A    between atoms: _112  and  _114
REMARK   47  A    between atoms: _114  and  _115
REMARK   48  A    between atoms: _114  and  _117
REMARK   49  A    between atoms: _117  and  _118
REMARK   50  A    between atoms: _118  and  _119
REMARK   51  A    between atoms: _122  and  _124
REMARK   52  A    between atoms: _124  and  _125
REMARK   53  A    between atoms: _124  and  _127
REMARK   54  A    between atoms: _127  and  _128
REMARK   55  A    between atoms: _133  and  _135
REMARK   56  A    between atoms: _135  and  _136
REMARK   57  A    between atoms: _135  and  _138
REMARK   58  A    between atoms: _138  and  _139
REMARK   59  A    between atoms: _142  and  _144
REMARK   60  A    between atoms: _144  and  _145
REMARK   61  A    between atoms: _144  and  _147
REMARK   62  A    between atoms: _147  and  _148
REMARK   63  A    between atoms: _153  and  _154
REMARK   64  A    between atoms: _156  and  _158
REMARK   65  A    between atoms: _158  and  _159
REMARK   66  A    between atoms: _158  and  _161
REMARK   67  A    between atoms: _161  and  _162
REMARK   68  A    between atoms: _162  and  _163
REMARK   69  A    between atoms: _163  and  _164
REMARK   70  A    between atoms: _173  and  _175
REMARK   71  A    between atoms: _175  and  _176
REMARK   72  A    between atoms: _175  and  _178
REMARK   73  A    between atoms: _178  and  _179
REMARK   74  A    between atoms: _184  and  _186
REMARK   75  A    between atoms: _186  and  _187
REMARK   76  A    between atoms: _186  and  _189
REMARK   77  A    between atoms: _189  and  _190
REMARK   78  A    between atoms: _192  and  _194
REMARK   79  A    between atoms: _194  and  _195
REMARK   80  A    between atoms: _194  and  _197
REMARK   81  A    between atoms: _197  and  _198
REMARK   82  A    between atoms: _200  and  _202
REMARK   83  A    between atoms: _202  and  _203
REMARK   84  A    between atoms: _202  and  _205
REMARK   85  A    between atoms: _205  and  _206
REMARK   86  A    between atoms: _206  and  _207
REMARK   87  A    between atoms: _210  and  _212
REMARK   88  A    between atoms: _212  and  _213
REMARK   89  A    between atoms: _212  and  _215
REMARK   90  A    between atoms: _215  and  _216
REMARK   91  A    between atoms: _216  and  _217
REMARK   92  A    between atoms: _217  and  _218
REMARK   93  A    between atoms: _227  and  _229
REMARK   94  A    between atoms: _229  and  _230
REMARK   95  A    between atoms: _229  and  _232
REMARK   96  A    between atoms: _235  and  _237
REMARK   97  A    between atoms: _237  and  _238
REMARK   98  A    between atoms: _237  and  _240
REMARK   99  A    between atoms: _240  and  _241
REMARK  100  A    between atoms: _244  and  _246
REMARK  101  A    between atoms: _246  and  _247
REMARK  102  A    between atoms: _246  and  _249
REMARK  103  A    between atoms: _252  and  _254
REMARK  104  A    between atoms: _254  and  _255
REMARK  105  A    between atoms: _254  and  _257
REMARK  106  A    between atoms: _257  and  _258
REMARK  107  A    between atoms: _261  and  _263
REMARK  108  A    between atoms: _263  and  _264
REMARK  109  A    between atoms: _267  and  _269
REMARK  110  A    between atoms: _269  and  _270
REMARK  111  A    between atoms: _269  and  _272
REMARK  112  A    between atoms: _272  and  _273
REMARK  113  A    between atoms: _278  and  _280
REMARK  114  A    between atoms: _280  and  _281
REMARK  115  A    between atoms: _280  and  _283
REMARK  116  A    between atoms: _283  and  _284
REMARK  117  A    between atoms: _284  and  _285
REMARK  118  A    between atoms: _288  and  _290
REMARK  119  A    between atoms: _290  and  _291
REMARK  120  A    between atoms: _290  and  _293
REMARK  121  A    between atoms: _293  and  _294
REMARK  122  A    between atoms: _299  and  _301
REMARK  123  A    between atoms: _301  and  _302
REMARK  124  A    between atoms: _301  and  _304
REMARK  125  A    between atoms: _304  and  _305
REMARK  126  A    between atoms: _315  and  _317
REMARK  127  A    between atoms: _317  and  _318
REMARK  128  A    between atoms: _317  and  _320
REMARK  129  A    between atoms: _320  and  _321
REMARK  130  A    between atoms: _324  and  _326
REMARK  131  A    between atoms: _326  and  _327
REMARK  132  A    between atoms: _326  and  _329
REMARK  133  A    between atoms: _329  and  _330
REMARK  134  A    between atoms: _335  and  _337
REMARK  135  A    between atoms: _337  and  _338
REMARK  136  A    between atoms: _337  and  _340
REMARK  137  A    between atoms: _340  and  _341
REMARK  138  A    between atoms: _341  and  _342
REMARK  139  A    between atoms: _345  and  _347
REMARK  140  A    between atoms: _347  and  _348
REMARK  141  A    between atoms: _351  and  _353
REMARK  142  A    between atoms: _353  and  _354
REMARK  143  A    between atoms: _353  and  _356
REMARK  144  A    between atoms: _356  and  _357
REMARK  145  A    between atoms: _359  and  _361
REMARK  146  A    between atoms: _361  and  _362
REMARK  147  A    between atoms: _361  and  _364
REMARK  148  A    between atoms: _364  and  _365
REMARK  149  A    between atoms: _365  and  _366
REMARK  150  A    between atoms: _369  and  _371
REMARK  151  A    between atoms: _371  and  _372
REMARK  152  A    between atoms: _371  and  _374
REMARK  153  A    between atoms: _374  and  _375
REMARK  154  A    between atoms: _380  and  _381
REMARK  155  A    between atoms: _383  and  _385
REMARK  156  A    between atoms: _385  and  _386
REMARK  157  A    between atoms: _385  and  _388
REMARK  158  A    between atoms: _388  and  _389
REMARK  159  A    between atoms: _392  and  _394
REMARK  160  A    between atoms: _394  and  _395
REMARK  161  A    between atoms: _394  and  _397
REMARK  162  A    between atoms: _397  and  _398
REMARK  163  A    between atoms: _403  and  _405
REMARK  164  A    between atoms: _405  and  _406
REMARK  165  A    between atoms: _405  and  _408
REMARK  166  A    between atoms: _408  and  _409
REMARK  167  A    between atoms: _412  and  _414
REMARK  168  A    between atoms: _414  and  _415
REMARK  169  A    between atoms: _414  and  _417
REMARK  170  A    between atoms: _417  and  _418
REMARK  171  A    between atoms: _423  and  _424
REMARK  172  A    between atoms: _426  and  _428
REMARK  173  A    between atoms: _428  and  _429
REMARK  174  A    between atoms: _428  and  _431
REMARK  175  A    between atoms: _431  and  _432
REMARK  176  A    between atoms: _432  and  _433
REMARK  177  A    between atoms: _433  and  _434
REMARK  178  A    between atoms: _443  and  _445
REMARK  179  A    between atoms: _445  and  _446
REMARK  180  A    between atoms: _445  and  _448
REMARK  181  A    between atoms: _451  and  _453
REMARK  182  A    between atoms: _453  and  _454
REMARK  183  A    between atoms: _457  and  _459
REMARK  184  A    between atoms: _459  and  _460
REMARK  185  A    between atoms: _459  and  _462
REMARK  186  A    between atoms: _465  and  _467
REMARK  187  A    between atoms: _467  and  _468
REMARK  188  A    between atoms: _467  and  _470
REMARK  189  A    between atoms: _470  and  _471
REMARK  190  A    between atoms: _473  and  _475
REMARK  191  A    between atoms: _475  and  _476
REMARK  192  A    between atoms: _475  and  _478
REMARK  193  A    between atoms: _478  and  _479
REMARK  194  A    between atoms: _479  and  _480
REMARK  195  A    between atoms: _483  and  _485
REMARK  196  A    between atoms: _485  and  _486
REMARK  197  A    between atoms: _485  and  _488
REMARK  198  A    between atoms: _488  and  _489
REMARK  199  A    between atoms: _492  and  _494
REMARK  200  A    between atoms: _494  and  _495
REMARK  201  A    between atoms: _494  and  _497
REMARK  202  A    between atoms: _497  and  _498
REMARK  203  A    between atoms: _504  and  _506
REMARK  204  A    between atoms: _506  and  _507
REMARK  205  A    between atoms: _506  and  _509
REMARK  206  A    between atoms: _509  and  _510
REMARK  207  A    between atoms: _513  and  _515
REMARK  208  A    between atoms: _515  and  _516
REMARK  209  A    between atoms: _519  and  _521
REMARK  210  A    between atoms: _521  and  _522
REMARK  211  A    between atoms: _521  and  _524
REMARK  212  A    between atoms: _524  and  _525
REMARK  213  A    between atoms: _530  and  _531
REMARK  214  A    between atoms: _533  and  _535
REMARK  215  A    between atoms: _535  and  _536
REMARK  216  A    between atoms: _535  and  _538
REMARK  217  A    between atoms: _538  and  _539
REMARK  218  A    between atoms: _541  and  _543
REMARK  219  A    between atoms: _543  and  _544
REMARK  220  A    between atoms: _543  and  _546
REMARK  221  A    between atoms: _546  and  _547
REMARK  222  A    between atoms: _550  and  _552
REMARK  223  A    between atoms: _552  and  _553
REMARK  224  A    between atoms: _552  and  _555
REMARK  225  A    between atoms: _555  and  _556
REMARK  226  A    between atoms: _558  and  _560
REMARK  227  A    between atoms: _560  and  _561
REMARK  228  A    between atoms: _560  and  _563
REMARK  229  A    between atoms: _563  and  _564
REMARK  230  A    between atoms: _567  and  _569
REMARK  231  A    between atoms: _569  and  _570
REMARK  232  A    between atoms: _569  and  _572
REMARK  233  A    between atoms: _572  and  _573
REMARK  234  A    between atoms: _575  and  _577
REMARK  235  A    between atoms: _577  and  _578
REMARK  236  A    between atoms: _577  and  _580
REMARK  237  A    between atoms: _580  and  _581
REMARK  238  A    between atoms: _584  and  _586
REMARK  239  A    between atoms: _586  and  _587
REMARK  240  A    between atoms: _586  and  _589
REMARK  241  A    between atoms: _589  and  _590
REMARK  242  A    between atoms: _595  and  _597
REMARK  243  A    between atoms: _597  and  _598
REMARK  244  A    between atoms: _597  and  _600
REMARK  245  A    between atoms: _600  and  _601
REMARK  246  A    between atoms: _603  and  _605
REMARK  247  A    between atoms: _605  and  _606
REMARK  248  A    between atoms: _605  and  _608
REMARK  249  A    between atoms: _608  and  _609
REMARK  250  A    between atoms: _615  and  _617
REMARK  251  A    between atoms: _617  and  _618
REMARK  252  A    between atoms: _617  and  _620
REMARK  253  A    between atoms: _620  and  _621
REMARK  254  A    between atoms: _623  and  _625
REMARK  255  A    between atoms: _625  and  _626
REMARK  256  A    between atoms: _625  and  _628
REMARK  257  A    between atoms: _628  and  _629
REMARK  258  A    between atoms: _635  and  _637
REMARK  259  A    between atoms: _637  and  _638
REMARK  260  A    between atoms: _637  and  _640
REMARK  261  A    between atoms: _640  and  _641
REMARK  262  A    between atoms: _643  and  _645
REMARK  263  A    between atoms: _645  and  _646
REMARK  264  A    between atoms: _645  and  _648
REMARK  265  A    between atoms: _648  and  _649
REMARK  266  A    between atoms: _654  and  _656
REMARK  267  A    between atoms: _656  and  _657
REMARK  268  A    between atoms: _656  and  _659
REMARK  269  A    between atoms: _659  and  _660
REMARK  270  A    between atoms: _663  and  _665
REMARK  271  A    between atoms: _665  and  _666
REMARK  272  A    between atoms: _665  and  _668
REMARK  273  A    between atoms: _668  and  _669
REMARK  274  A    between atoms: _672  and  _674
REMARK  275  A    between atoms: _674  and  _675
REMARK  276  A    between atoms: _674  and  _677
REMARK  277  A    between atoms: _677  and  _678
REMARK  278  A    between atoms: _678  and  _679
REMARK  279  A    between atoms: _684  and  _686
REMARK  280  A    between atoms: _686  and  _687
REMARK  281  A    between atoms: _690  and  _692
REMARK  282  A    between atoms: _692  and  _693
REMARK  283  A    between atoms: _692  and  _695
REMARK  284  A    between atoms: _698  and  _700
REMARK  285  A    between atoms: _700  and  _701
REMARK  286  A    between atoms: _700  and  _703
REMARK  287  A    between atoms: _703  and  _704
REMARK  288  A    between atoms: _707  and  _709
REMARK  289  A    between atoms: _709  and  _710
REMARK  290  A    between atoms: _709  and  _712
REMARK  291  A    between atoms: _712  and  _713
REMARK  292  A    between atoms: _713  and  _714
REMARK  293  A    between atoms: _714  and  _715
REMARK  294  A    between atoms: _724  and  _726
REMARK  295  A    between atoms: _726  and  _727
REMARK  296  A    between atoms: _726  and  _729
REMARK  297  A    between atoms: _729  and  _730
REMARK  298  A    between atoms: _730  and  _731
REMARK  299  A    between atoms: _731  and  _732
REMARK  300  A    between atoms: _732  and  _733
REMARK                            x       y       z     vdW  Elec       q    Type
REMARK                         _______ _______ _______ _____ _____    ______ ____
ROOT
ATOM      1  O   HOH     1      98.942  14.485  26.924  0.00  0.00    +0.000 OA
ENDROOT
TORSDOF 0
REMARK  Name = ../refined-set-2016/4fys/4fys_pocket.pdb
REMARK  300 active torsions:
REMARK  status: ('A' for Active; 'I' for Inactive)
REMARK    1  A    between atoms: _1  and  _3
REMARK    2  A    between atoms: _3  and  _4
REMARK    3  A    between atoms: _3  and  _6
REMARK    4  A    between atoms: _6  and  _7
REMARK    5  A    between atoms: _7  and  _8
REMARK    6  A    between atoms: _13  and  _15
REMARK    7  A    between atoms: _15  and  _16
REMARK    8  A    between atoms: _15  and  _18
REMARK    9  A    between atoms: _18  and  _19
REMARK   10  A    between atoms: _19  and  _20
REMARK   11  A    between atoms: _22  and  _24
REMARK   12  A    between atoms: _24  and  _25
REMARK   13  A    between atoms: _24  and  _27
REMARK   14  A    between atoms: _27  and  _28
REMARK   15  A    between atoms: _28  and  _29
REMARK   16  A    between atoms: _34  and  _36
REMARK   17  A    between atoms: _36  and  _37
REMARK   18  A    between atoms: _40  and  _42
REMARK   19  A    between atoms: _42  and  _43
REMARK   20  A    between atoms: _42  and  _45
REMARK   21  A    between atoms: _45  and  _46
REMARK   22  A    between atoms: _51  and  _52
REMARK   23  A    between atoms: _54  and  _56
REMARK   24  A    between atoms: _56  and  _57
REMARK   25  A    between atoms: _56  and  _59
REMARK   26  A    between atoms: _59  and  _60
REMARK   27  A    between atoms: _63  and  _65
REMARK   28  A    between atoms: _65  and  _66
REMARK   29  A    between atoms: _65  and  _68
REMARK   30  A    between atoms: _68  and  _69
REMARK   31  A    between atoms: _75  and  _77
REMARK   32  A    between atoms: _77  and  _78
REMARK   33  A    between atoms: _77  and  _80
REMARK   34  A    between atoms: _80  and  _81
REMARK   35  A    between atoms: _86  and  _88
REMARK   36  A    between atoms: _88  and  _89
REMARK   37  A    between atoms: _92  and  _94
REMARK   38  A    between atoms: _94  and  _95
REMARK   39  A    between atoms: _97  and  _99
REMARK   40  A    between atoms: _99  and  _100
REMARK   41  A    between atoms: _103  and  _105
REMARK   42  A    between atoms: _105  and  _106
REMARK   43  A    between atoms: _105  and  _108
REMARK   44  A    between atoms: _108  and  _109
REMARK   45  A    between atoms: _109  and  _110
REMARK   46  A    between atoms: _112  and  _114
REMARK   47  A    between atoms: _114  and  _115
REMARK   48  A    between atoms: _114  and  _117
REMARK   49  A    between atoms: _117  and  _118
REMARK   50  A    between atoms: _118  and  _119
REMARK   51  A    between atoms: _122  and  _124
REMARK   52  A    between atoms: _124  and  _125
REMARK   53  A    between atoms: _124  and  _127
REMARK   54  A    between atoms: _127  and  _128
REMARK   55  A    between atoms: _133  and  _135
REMARK   56  A    between atoms: _135  and  _136
REMARK   57  A    between atoms: _135  and  _138
REMARK   58  A    between atoms: _138  and  _139
REMARK   59  A    between atoms: _142  and  _144
REMARK   60  A    between atoms: _144  and  _145
REMARK   61  A    between atoms: _144  and  _147
REMARK   62  A    between atoms: _147  and  _148
REMARK   63  A    between atoms: _153  and  _154
REMARK   64  A    between atoms: _156  and  _158
REMARK   65  A    between atoms: _158  and  _159
REMARK   66  A    between atoms: _158  and  _161
REMARK   67  A    between atoms: _161  and  _162
REMARK   68  A    between atoms: _162  and  _163
REMARK   69  A    between atoms: _163  and  _164
REMARK   70  A    between atoms: _173  and  _175
REMARK   71  A    between atoms: _175  and  _176
REMARK   72  A    between atoms: _175  and  _178
REMARK   73  A    between atoms: _178  and  _179
REMARK   74  A    between atoms: _184  and  _186
REMARK   75  A    between atoms: _186  and  _187
REMARK   76  A    between atoms: _186  and  _189
REMARK   77  A    between atoms: _189  and  _190
REMARK   78  A    between atoms: _192  and  _194
REMARK   79  A    between atoms: _194  and  _195
REMARK   80  A    between atoms: _194  and  _197
REMARK   81  A    between atoms: _197  and  _198
REMARK   82  A    between atoms: _200  and  _202
REMARK   83  A    between atoms: _202  and  _203
REMARK   84  A    between atoms: _202  and  _205
REMARK   85  A    between atoms: _205  and  _206
REMARK   86  A    between atoms: _206  and  _207
REMARK   87  A    between atoms: _210  and  _212
REMARK   88  A    between atoms: _212  and  _213
REMARK   89  A    between atoms: _212  and  _215
REMARK   90  A    between atoms: _215  and  _216
REMARK   91  A    between atoms: _216  and  _217
REMARK   92  A    between atoms: _217  and  _218
REMARK   93  A    between atoms: _227  and  _229
REMARK   94  A    between atoms: _229  and  _230
REMARK   95  A    between atoms: _229  and  _232
REMARK   96  A    between atoms: _235  and  _237
REMARK   97  A    between atoms: _237  and  _238
REMARK   98  A    between atoms: _237  and  _240
REMARK   99  A    between atoms: _240  and  _241
REMARK  100  A    between atoms: _244  and  _246
REMARK  101  A    between atoms: _246  and  _247
REMARK  102  A    between atoms: _246  and  _249
REMARK  103  A    between atoms: _252  and  _254
REMARK  104  A    between atoms: _254  and  _255
REMARK  105  A    between atoms: _254  and  _257
REMARK  106  A    between atoms: _257  and  _258
REMARK  107  A    between atoms: _261  and  _263
REMARK  108  A    between atoms: _263  and  _264
REMARK  109  A    between atoms: _267  and  _269
REMARK  110  A    between atoms: _269  and  _270
REMARK  111  A    between atoms: _269  and  _272
REMARK  112  A    between atoms: _272  and  _273
REMARK  113  A    between atoms: _278  and  _280
REMARK  114  A    between atoms: _280  and  _281
REMARK  115  A    between atoms: _280  and  _283
REMARK  116  A    between atoms: _283  and  _284
REMARK  117  A    between atoms: _284  and  _285
REMARK  118  A    between atoms: _288  and  _290
REMARK  119  A    between atoms: _290  and  _291
REMARK  120  A    between atoms: _290  and  _293
REMARK  121  A    between atoms: _293  and  _294
REMARK  122  A    between atoms: _299  and  _301
REMARK  123  A    between atoms: _301  and  _302
REMARK  124  A    between atoms: _301  and  _304
REMARK  125  A    between atoms: _304  and  _305
REMARK  126  A    between atoms: _315  and  _317
REMARK  127  A    between atoms: _317  and  _318
REMARK  128  A    between atoms: _317  and  _320
REMARK  129  A    between atoms: _320  and  _321
REMARK  130  A    between atoms: _324  and  _326
REMARK  131  A    between atoms: _326  and  _327
REMARK  132  A    between atoms: _326  and  _329
REMARK  133  A    between atoms: _329  and  _330
REMARK  134  A    between atoms: _335  and  _337
REMARK  135  A    between atoms: _337  and  _338
REMARK  136  A    between atoms: _337  and  _340
REMARK  137  A    between atoms: _340  and  _341
REMARK  138  A    between atoms: _341  and  _342
REMARK  139  A    between atoms: _345  and  _347
REMARK  140  A    between atoms: _347  and  _348
REMARK  141  A    between atoms: _351  and  _353
REMARK  142  A    between atoms: _353  and  _354
REMARK  143  A    between atoms: _353  and  _356
REMARK  144  A    between atoms: _356  and  _357
REMARK  145  A    between atoms: _359  and  _361
REMARK  146  A    between atoms: _361  and  _362
REMARK  147  A    between atoms: _361  and  _364
REMARK  148  A    between atoms: _364  and  _365
REMARK  149  A    between atoms: _365  and  _366
REMARK  150  A    between atoms: _369  and  _371
REMARK  151  A    between atoms: _371  and  _372
REMARK  152  A    between atoms: _371  and  _374
REMARK  153  A    between atoms: _374  and  _375
REMARK  154  A    between atoms: _380  and  _381
REMARK  155  A    between atoms: _383  and  _385
REMARK  156  A    between atoms: _385  and  _386
REMARK  157  A    between atoms: _385  and  _388
REMARK  158  A    between atoms: _388  and  _389
REMARK  159  A    between atoms: _392  and  _394
REMARK  160  A    between atoms: _394  and  _395
REMARK  161  A    between atoms: _394  and  _397
REMARK  162  A    between atoms: _397  and  _398
REMARK  163  A    between atoms: _403  and  _405
REMARK  164  A    between atoms: _405  and  _406
REMARK  165  A    between atoms: _405  and  _408
REMARK  166  A    between atoms: _408  and  _409
REMARK  167  A    between atoms: _412  and  _414
REMARK  168  A    between atoms: _414  and  _415
REMARK  169  A    between atoms: _414  and  _417
REMARK  170  A    between atoms: _417  and  _418
REMARK  171  A    between atoms: _423  and  _424
REMARK  172  A    between atoms: _426  and  _428
REMARK  173  A    between atoms: _428  and  _429
REMARK  174  A    between atoms: _428  and  _431
REMARK  175  A    between atoms: _431  and  _432
REMARK  176  A    between atoms: _432  and  _433
REMARK  177  A    between atoms: _433  and  _434
REMARK  178  A    between atoms: _443  and  _445
REMARK  179  A    between atoms: _445  and  _446
REMARK  180  A    between atoms: _445  and  _448
REMARK  181  A    between atoms: _451  and  _453
REMARK  182  A    between atoms: _453  and  _454
REMARK  183  A    between atoms: _457  and  _459
REMARK  184  A    between atoms: _459  and  _460
REMARK  185  A    between atoms: _459  and  _462
REMARK  186  A    between atoms: _465  and  _467
REMARK  187  A    between atoms: _467  and  _468
REMARK  188  A    between atoms: _467  and  _470
REMARK  189  A    between atoms: _470  and  _471
REMARK  190  A    between atoms: _473  and  _475
REMARK  191  A    between atoms: _475  and  _476
REMARK  192  A    between atoms: _475  and  _478
REMARK  193  A    between atoms: _478  and  _479
REMARK  194  A    between atoms: _479  and  _480
REMARK  195  A    between atoms: _483  and  _485
REMARK  196  A    between atoms: _485  and  _486
REMARK  197  A    between atoms: _485  and  _488
REMARK  198  A    between atoms: _488  and  _489
REMARK  199  A    between atoms: _492  and  _494
REMARK  200  A    between atoms: _494  and  _495
REMARK  201  A    between atoms: _494  and  _497
REMARK  202  A    between atoms: _497  and  _498
REMARK  203  A    between atoms: _504  and  _506
REMARK  204  A    between atoms: _506  and  _507
REMARK  205  A    between atoms: _506  and  _509
REMARK  206  A    between atoms: _509  and  _510
REMARK  207  A    between atoms: _513  and  _515
REMARK  208  A    between atoms: _515  and  _516
REMARK  209  A    between atoms: _519  and  _521
REMARK  210  A    between atoms: _521  and  _522
REMARK  211  A    between atoms: _521  and  _524
REMARK  212  A    between atoms: _524  and  _525
REMARK  213  A    between atoms: _530  and  _531
REMARK  214  A    between atoms: _533  and  _535
REMARK  215  A    between atoms: _535  and  _536
REMARK  216  A    between atoms: _535  and  _538
REMARK  217  A    between atoms: _538  and  _539
REMARK  218  A    between atoms: _541  and  _543
REMARK  219  A    between atoms: _543  and  _544
REMARK  220  A    between atoms: _543  and  _546
REMARK  221  A    between atoms: _546  and  _547
REMARK  222  A    between atoms: _550  and  _552
REMARK  223  A    between atoms: _552  and  _553
REMARK  224  A    between atoms: _552  and  _555
REMARK  225  A    between atoms: _555  and  _556
REMARK  226  A    between atoms: _558  and  _560
REMARK  227  A    between atoms: _560  and  _561
REMARK  228  A    between atoms: _560  and  _563
REMARK  229  A    between atoms: _563  and  _564
REMARK  230  A    between atoms: _567  and  _569
REMARK  231  A    between atoms: _569  and  _570
REMARK  232  A    between atoms: _569  and  _572
REMARK  233  A    between atoms: _572  and  _573
REMARK  234  A    between atoms: _575  and  _577
REMARK  235  A    between atoms: _577  and  _578
REMARK  236  A    between atoms: _577  and  _580
REMARK  237  A    between atoms: _580  and  _581
REMARK  238  A    between atoms: _584  and  _586
REMARK  239  A    between atoms: _586  and  _587
REMARK  240  A    between atoms: _586  and  _589
REMARK  241  A    between atoms: _589  and  _590
REMARK  242  A    between atoms: _595  and  _597
REMARK  243  A    between atoms: _597  and  _598
REMARK  244  A    between atoms: _597  and  _600
REMARK  245  A    between atoms: _600  and  _601
REMARK  246  A    between atoms: _603  and  _605
REMARK  247  A    between atoms: _605  and  _606
REMARK  248  A    between atoms: _605  and  _608
REMARK  249  A    between atoms: _608  and  _609
REMARK  250  A    between atoms: _615  and  _617
REMARK  251  A    between atoms: _617  and  _618
REMARK  252  A    between atoms: _617  and  _620
REMARK  253  A    between atoms: _620  and  _621
REMARK  254  A    between atoms: _623  and  _625
REMARK  255  A    between atoms: _625  and  _626
REMARK  256  A    between atoms: _625  and  _628
REMARK  257  A    between atoms: _628  and  _629
REMARK  258  A    between atoms: _635  and  _637
REMARK  259  A    between atoms: _637  and  _638
REMARK  260  A    between atoms: _637  and  _640
REMARK  261  A    between atoms: _640  and  _641
REMARK  262  A    between atoms: _643  and  _645
REMARK  263  A    between atoms: _645  and  _646
REMARK  264  A    between atoms: _645  and  _648
REMARK  265  A    between atoms: _648  and  _649
REMARK  266  A    between atoms: _654  and  _656
REMARK  267  A    between atoms: _656  and  _657
REMARK  268  A    between atoms: _656  and  _659
REMARK  269  A    between atoms: _659  and  _660
REMARK  270  A    between atoms: _663  and  _665
REMARK  271  A    between atoms: _665  and  _666
REMARK  272  A    between atoms: _665  and  _668
REMARK  273  A    between atoms: _668  and  _669
REMARK  274  A    between atoms: _672  and  _674
REMARK  275  A    between atoms: _674  and  _675
REMARK  276  A    between atoms: _674  and  _677
REMARK  277  A    between atoms: _677  and  _678
REMARK  278  A    between atoms: _678  and  _679
REMARK  279  A    between atoms: _684  and  _686
REMARK  280  A    between atoms: _686  and  _687
REMARK  281  A    between atoms: _690  and  _692
REMARK  282  A    between atoms: _692  and  _693
REMARK  283  A    between atoms: _692  and  _695
REMARK  284  A    between atoms: _698  and  _700
REMARK  285  A    between atoms: _700  and  _701
REMARK  286  A    between atoms: _700  and  _703
REMARK  287  A    between atoms: _703  and  _704
REMARK  288  A    between atoms: _707  and  _709
REMARK  289  A    between atoms: _709  and  _710
REMARK  290  A    between atoms: _709  and  _712
REMARK  291  A    between atoms: _712  and  _713
REMARK  292  A    between atoms: _713  and  _714
REMARK  293  A    between atoms: _714  and  _715
REMARK  294  A    between atoms: _724  and  _726
REMARK  295  A    between atoms: _726  and  _727
REMARK  296  A    between atoms: _726  and  _729
REMARK  297  A    between atoms: _729  and  _730
REMARK  298  A    between atoms: _730  and  _731
REMARK  299  A    between atoms: _731  and  _732
REMARK  300  A    between atoms: _732  and  _733
REMARK                            x       y       z     vdW  Elec       q    Type
REMARK                         _______ _______ _______ _____ _____    ______ ____
ROOT
ATOM      1  O   HOH     1      98.103  11.408  17.891  0.00  0.00    +0.000 OA
ENDROOT
TORSDOF 0
REMARK  Name = ../refined-set-2016/4fys/4fys_pocket.pdb
REMARK  300 active torsions:
REMARK  status: ('A' for Active; 'I' for Inactive)
REMARK    1  A    between atoms: _1  and  _3
REMARK    2  A    between atoms: _3  and  _4
REMARK    3  A    between atoms: _3  and  _6
REMARK    4  A    between atoms: _6  and  _7
REMARK    5  A    between atoms: _7  and  _8
REMARK    6  A    between atoms: _13  and  _15
REMARK    7  A    between atoms: _15  and  _16
REMARK    8  A    between atoms: _15  and  _18
REMARK    9  A    between atoms: _18  and  _19
REMARK   10  A    between atoms: _19  and  _20
REMARK   11  A    between atoms: _22  and  _24
REMARK   12  A    between atoms: _24  and  _25
REMARK   13  A    between atoms: _24  and  _27
REMARK   14  A    between atoms: _27  and  _28
REMARK   15  A    between atoms: _28  and  _29
REMARK   16  A    between atoms: _34  and  _36
REMARK   17  A    between atoms: _36  and  _37
REMARK   18  A    between atoms: _40  and  _42
REMARK   19  A    between atoms: _42  and  _43
REMARK   20  A    between atoms: _42  and  _45
REMARK   21  A    between atoms: _45  and  _46
REMARK   22  A    between atoms: _51  and  _52
REMARK   23  A    between atoms: _54  and  _56
REMARK   24  A    between atoms: _56  and  _57
REMARK   25  A    between atoms: _56  and  _59
REMARK   26  A    between atoms: _59  and  _60
REMARK   27  A    between atoms: _63  and  _65
REMARK   28  A    between atoms: _65  and  _66
REMARK   29  A    between atoms: _65  and  _68
REMARK   30  A    between atoms: _68  and  _69
REMARK   31  A    between atoms: _75  and  _77
REMARK   32  A    between atoms: _77  and  _78
REMARK   33  A    between atoms: _77  and  _80
REMARK   34  A    between atoms: _80  and  _81
REMARK   35  A    between atoms: _86  and  _88
REMARK   36  A    between atoms: _88  and  _89
REMARK   37  A    between atoms: _92  and  _94
REMARK   38  A    between atoms: _94  and  _95
REMARK   39  A    between atoms: _97  and  _99
REMARK   40  A    between atoms: _99  and  _100
REMARK   41  A    between atoms: _103  and  _105
REMARK   42  A    between atoms: _105  and  _106
REMARK   43  A    between atoms: _105  and  _108
REMARK   44  A    between atoms: _108  and  _109
REMARK   45  A    between atoms: _109  and  _110
REMARK   46  A    between atoms: _112  and  _114
REMARK   47  A    between atoms: _114  and  _115
REMARK   48  A    between atoms: _114  and  _117
REMARK   49  A    between atoms: _117  and  _118
REMARK   50  A    between atoms: _118  and  _119
REMARK   51  A    between atoms: _122  and  _124
REMARK   52  A    between atoms: _124  and  _125
REMARK   53  A    between atoms: _124  and  _127
REMARK   54  A    between atoms: _127  and  _128
REMARK   55  A    between atoms: _133  and  _135
REMARK   56  A    between atoms: _135  and  _136
REMARK   57  A    between atoms: _135  and  _138
REMARK   58  A    between atoms: _138  and  _139
REMARK   59  A    between atoms: _142  and  _144
REMARK   60  A    between atoms: _144  and  _145
REMARK   61  A    between atoms: _144  and  _147
REMARK   62  A    between atoms: _147  and  _148
REMARK   63  A    between atoms: _153  and  _154
REMARK   64  A    between atoms: _156  and  _158
REMARK   65  A    between atoms: _158  and  _159
REMARK   66  A    between atoms: _158  and  _161
REMARK   67  A    between atoms: _161  and  _162
REMARK   68  A    between atoms: _162  and  _163
REMARK   69  A    between atoms: _163  and  _164
REMARK   70  A    between atoms: _173  and  _175
REMARK   71  A    between atoms: _175  and  _176
REMARK   72  A    between atoms: _175  and  _178
REMARK   73  A    between atoms: _178  and  _179
REMARK   74  A    between atoms: _184  and  _186
REMARK   75  A    between atoms: _186  and  _187
REMARK   76  A    between atoms: _186  and  _189
REMARK   77  A    between atoms: _189  and  _190
REMARK   78  A    between atoms: _192  and  _194
REMARK   79  A    between atoms: _194  and  _195
REMARK   80  A    between atoms: _194  and  _197
REMARK   81  A    between atoms: _197  and  _198
REMARK   82  A    between atoms: _200  and  _202
REMARK   83  A    between atoms: _202  and  _203
REMARK   84  A    between atoms: _202  and  _205
REMARK   85  A    between atoms: _205  and  _206
REMARK   86  A    between atoms: _206  and  _207
REMARK   87  A    between atoms: _210  and  _212
REMARK   88  A    between atoms: _212  and  _213
REMARK   89  A    between atoms: _212  and  _215
REMARK   90  A    between atoms: _215  and  _216
REMARK   91  A    between atoms: _216  and  _217
REMARK   92  A    between atoms: _217  and  _218
REMARK   93  A    between atoms: _227  and  _229
REMARK   94  A    between atoms: _229  and  _230
REMARK   95  A    between atoms: _229  and  _232
REMARK   96  A    between atoms: _235  and  _237
REMARK   97  A    between atoms: _237  and  _238
REMARK   98  A    between atoms: _237  and  _240
REMARK   99  A    between atoms: _240  and  _241
REMARK  100  A    between atoms: _244  and  _246
REMARK  101  A    between atoms: _246  and  _247
REMARK  102  A    between atoms: _246  and  _249
REMARK  103  A    between atoms: _252  and  _254
REMARK  104  A    between atoms: _254  and  _255
REMARK  105  A    between atoms: _254  and  _257
REMARK  106  A    between atoms: _257  and  _258
REMARK  107  A    between atoms: _261  and  _263
REMARK  108  A    between atoms: _263  and  _264
REMARK  109  A    between atoms: _267  and  _269
REMARK  110  A    between atoms: _269  and  _270
REMARK  111  A    between atoms: _269  and  _272
REMARK  112  A    between atoms: _272  and  _273
REMARK  113  A    between atoms: _278  and  _280
REMARK  114  A    between atoms: _280  and  _281
REMARK  115  A    between atoms: _280  and  _283
REMARK  116  A    between atoms: _283  and  _284
REMARK  117  A    between atoms: _284  and  _285
REMARK  118  A    between atoms: _288  and  _290
REMARK  119  A    between atoms: _290  and  _291
REMARK  120  A    between atoms: _290  and  _293
REMARK  121  A    between atoms: _293  and  _294
REMARK  122  A    between atoms: _299  and  _301
REMARK  123  A    between atoms: _301  and  _302
REMARK  124  A    between atoms: _301  and  _304
REMARK  125  A    between atoms: _304  and  _305
REMARK  126  A    between atoms: _315  and  _317
REMARK  127  A    between atoms: _317  and  _318
REMARK  128  A    between atoms: _317  and  _320
REMARK  129  A    between atoms: _320  and  _321
REMARK  130  A    between atoms: _324  and  _326
REMARK  131  A    between atoms: _326  and  _327
REMARK  132  A    between atoms: _326  and  _329
REMARK  133  A    between atoms: _329  and  _330
REMARK  134  A    between atoms: _335  and  _337
REMARK  135  A    between atoms: _337  and  _338
REMARK  136  A    between atoms: _337  and  _340
REMARK  137  A    between atoms: _340  and  _341
REMARK  138  A    between atoms: _341  and  _342
REMARK  139  A    between atoms: _345  and  _347
REMARK  140  A    between atoms: _347  and  _348
REMARK  141  A    between atoms: _351  and  _353
REMARK  142  A    between atoms: _353  and  _354
REMARK  143  A    between atoms: _353  and  _356
REMARK  144  A    between atoms: _356  and  _357
REMARK  145  A    between atoms: _359  and  _361
REMARK  146  A    between atoms: _361  and  _362
REMARK  147  A    between atoms: _361  and  _364
REMARK  148  A    between atoms: _364  and  _365
REMARK  149  A    between atoms: _365  and  _366
REMARK  150  A    between atoms: _369  and  _371
REMARK  151  A    between atoms: _371  and  _372
REMARK  152  A    between atoms: _371  and  _374
REMARK  153  A    between atoms: _374  and  _375
REMARK  154  A    between atoms: _380  and  _381
REMARK  155  A    between atoms: _383  and  _385
REMARK  156  A    between atoms: _385  and  _386
REMARK  157  A    between atoms: _385  and  _388
REMARK  158  A    between atoms: _388  and  _389
REMARK  159  A    between atoms: _392  and  _394
REMARK  160  A    between atoms: _394  and  _395
REMARK  161  A    between atoms: _394  and  _397
REMARK  162  A    between atoms: _397  and  _398
REMARK  163  A    between atoms: _403  and  _405
REMARK  164  A    between atoms: _405  and  _406
REMARK  165  A    between atoms: _405  and  _408
REMARK  166  A    between atoms: _408  and  _409
REMARK  167  A    between atoms: _412  and  _414
REMARK  168  A    between atoms: _414  and  _415
REMARK  169  A    between atoms: _414  and  _417
REMARK  170  A    between atoms: _417  and  _418
REMARK  171  A    between atoms: _423  and  _424
REMARK  172  A    between atoms: _426  and  _428
REMARK  173  A    between atoms: _428  and  _429
REMARK  174  A    between atoms: _428  and  _431
REMARK  175  A    between atoms: _431  and  _432
REMARK  176  A    between atoms: _432  and  _433
REMARK  177  A    between atoms: _433  and  _434
REMARK  178  A    between atoms: _443  and  _445
REMARK  179  A    between atoms: _445  and  _446
REMARK  180  A    between atoms: _445  and  _448
REMARK  181  A    between atoms: _451  and  _453
REMARK  182  A    between atoms: _453  and  _454
REMARK  183  A    between atoms: _457  and  _459
REMARK  184  A    between atoms: _459  and  _460
REMARK  185  A    between atoms: _459  and  _462
REMARK  186  A    between atoms: _465  and  _467
REMARK  187  A    between atoms: _467  and  _468
REMARK  188  A    between atoms: _467  and  _470
REMARK  189  A    between atoms: _470  and  _471
REMARK  190  A    between atoms: _473  and  _475
REMARK  191  A    between atoms: _475  and  _476
REMARK  192  A    between atoms: _475  and  _478
REMARK  193  A    between atoms: _478  and  _479
REMARK  194  A    between atoms: _479  and  _480
REMARK  195  A    between atoms: _483  and  _485
REMARK  196  A    between atoms: _485  and  _486
REMARK  197  A    between atoms: _485  and  _488
REMARK  198  A    between atoms: _488  and  _489
REMARK  199  A    between atoms: _492  and  _494
REMARK  200  A    between atoms: _494  and  _495
REMARK  201  A    between atoms: _494  and  _497
REMARK  202  A    between atoms: _497  and  _498
REMARK  203  A    between atoms: _504  and  _506
REMARK  204  A    between atoms: _506  and  _507
REMARK  205  A    between atoms: _506  and  _509
REMARK  206  A    between atoms: _509  and  _510
REMARK  207  A    between atoms: _513  and  _515
REMARK  208  A    between atoms: _515  and  _516
REMARK  209  A    between atoms: _519  and  _521
REMARK  210  A    between atoms: _521  and  _522
REMARK  211  A    between atoms: _521  and  _524
REMARK  212  A    between atoms: _524  and  _525
REMARK  213  A    between atoms: _530  and  _531
REMARK  214  A    between atoms: _533  and  _535
REMARK  215  A    between atoms: _535  and  _536
REMARK  216  A    between atoms: _535  and  _538
REMARK  217  A    between atoms: _538  and  _539
REMARK  218  A    between atoms: _541  and  _543
REMARK  219  A    between atoms: _543  and  _544
REMARK  220  A    between atoms: _543  and  _546
REMARK  221  A    between atoms: _546  and  _547
REMARK  222  A    between atoms: _550  and  _552
REMARK  223  A    between atoms: _552  and  _553
REMARK  224  A    between atoms: _552  and  _555
REMARK  225  A    between atoms: _555  and  _556
REMARK  226  A    between atoms: _558  and  _560
REMARK  227  A    between atoms: _560  and  _561
REMARK  228  A    between atoms: _560  and  _563
REMARK  229  A    between atoms: _563  and  _564
REMARK  230  A    between atoms: _567  and  _569
REMARK  231  A    between atoms: _569  and  _570
REMARK  232  A    between atoms: _569  and  _572
REMARK  233  A    between atoms: _572  and  _573
REMARK  234  A    between atoms: _575  and  _577
REMARK  235  A    between atoms: _577  and  _578
REMARK  236  A    between atoms: _577  and  _580
REMARK  237  A    between atoms: _580  and  _581
REMARK  238  A    between atoms: _584  and  _586
REMARK  239  A    between atoms: _586  and  _587
REMARK  240  A    between atoms: _586  and  _589
REMARK  241  A    between atoms: _589  and  _590
REMARK  242  A    between atoms: _595  and  _597
REMARK  243  A    between atoms: _597  and  _598
REMARK  244  A    between atoms: _597  and  _600
REMARK  245  A    between atoms: _600  and  _601
REMARK  246  A    between atoms: _603  and  _605
REMARK  247  A    between atoms: _605  and  _606
REMARK  248  A    between atoms: _605  and  _608
REMARK  249  A    between atoms: _608  and  _609
REMARK  250  A    between atoms: _615  and  _617
REMARK  251  A    between atoms: _617  and  _618
REMARK  252  A    between atoms: _617  and  _620
REMARK  253  A    between atoms: _620  and  _621
REMARK  254  A    between atoms: _623  and  _625
REMARK  255  A    between atoms: _625  and  _626
REMARK  256  A    between atoms: _625  and  _628
REMARK  257  A    between atoms: _628  and  _629
REMARK  258  A    between atoms: _635  and  _637
REMARK  259  A    between atoms: _637  and  _638
REMARK  260  A    between atoms: _637  and  _640
REMARK  261  A    between atoms: _640  and  _641
REMARK  262  A    between atoms: _643  and  _645
REMARK  263  A    between atoms: _645  and  _646
REMARK  264  A    between atoms: _645  and  _648
REMARK  265  A    between atoms: _648  and  _649
REMARK  266  A    between atoms: _654  and  _656
REMARK  267  A    between atoms: _656  and  _657
REMARK  268  A    between atoms: _656  and  _659
REMARK  269  A    between atoms: _659  and  _660
REMARK  270  A    between atoms: _663  and  _665
REMARK  271  A    between atoms: _665  and  _666
REMARK  272  A    between atoms: _665  and  _668
REMARK  273  A    between atoms: _668  and  _669
REMARK  274  A    between atoms: _672  and  _674
REMARK  275  A    between atoms: _674  and  _675
REMARK  276  A    between atoms: _674  and  _677
REMARK  277  A    between atoms: _677  and  _678
REMARK  278  A    between atoms: _678  and  _679
REMARK  279  A    between atoms: _684  and  _686
REMARK  280  A    between atoms: _686  and  _687
REMARK  281  A    between atoms: _690  and  _692
REMARK  282  A    between atoms: _692  and  _693
REMARK  283  A    between atoms: _692  and  _695
REMARK  284  A    between atoms: _698  and  _700
REMARK  285  A    between atoms: _700  and  _701
REMARK  286  A    between atoms: _700  and  _703
REMARK  287  A    between atoms: _703  and  _704
REMARK  288  A    between atoms: _707  and  _709
REMARK  289  A    between atoms: _709  and  _710
REMARK  290  A    between atoms: _709  and  _712
REMARK  291  A    between atoms: _712  and  _713
REMARK  292  A    between atoms: _713  and  _714
REMARK  293  A    between atoms: _714  and  _715
REMARK  294  A    between atoms: _724  and  _726
REMARK  295  A    between atoms: _726  and  _727
REMARK  296  A    between atoms: _726  and  _729
REMARK  297  A    between atoms: _729  and  _730
REMARK  298  A    between atoms: _730  and  _731
REMARK  299  A    between atoms: _731  and  _732
REMARK  300  A    between atoms: _732  and  _733
REMARK                            x       y       z     vdW  Elec       q    Type
REMARK                         _______ _______ _______ _____ _____    ______ ____
ROOT
ATOM      1  O   HOH     1     107.834  11.853  27.353  0.00  0.00    +0.000 OA
ENDROOT
TORSDOF 0
REMARK  Name = ../refined-set-2016/4fys/4fys_pocket.pdb
REMARK  300 active torsions:
REMARK  status: ('A' for Active; 'I' for Inactive)
REMARK    1  A    between atoms: _1  and  _3
REMARK    2  A    between atoms: _3  and  _4
REMARK    3  A    between atoms: _3  and  _6
REMARK    4  A    between atoms: _6  and  _7
REMARK    5  A    between atoms: _7  and  _8
REMARK    6  A    between atoms: _13  and  _15
REMARK    7  A    between atoms: _15  and  _16
REMARK    8  A    between atoms: _15  and  _18
REMARK    9  A    between atoms: _18  and  _19
REMARK   10  A    between atoms: _19  and  _20
REMARK   11  A    between atoms: _22  and  _24
REMARK   12  A    between atoms: _24  and  _25
REMARK   13  A    between atoms: _24  and  _27
REMARK   14  A    between atoms: _27  and  _28
REMARK   15  A    between atoms: _28  and  _29
REMARK   16  A    between atoms: _34  and  _36
REMARK   17  A    between atoms: _36  and  _37
REMARK   18  A    between atoms: _40  and  _42
REMARK   19  A    between atoms: _42  and  _43
REMARK   20  A    between atoms: _42  and  _45
REMARK   21  A    between atoms: _45  and  _46
REMARK   22  A    between atoms: _51  and  _52
REMARK   23  A    between atoms: _54  and  _56
REMARK   24  A    between atoms: _56  and  _57
REMARK   25  A    between atoms: _56  and  _59
REMARK   26  A    between atoms: _59  and  _60
REMARK   27  A    between atoms: _63  and  _65
REMARK   28  A    between atoms: _65  and  _66
REMARK   29  A    between atoms: _65  and  _68
REMARK   30  A    between atoms: _68  and  _69
REMARK   31  A    between atoms: _75  and  _77
REMARK   32  A    between atoms: _77  and  _78
REMARK   33  A    between atoms: _77  and  _80
REMARK   34  A    between atoms: _80  and  _81
REMARK   35  A    between atoms: _86  and  _88
REMARK   36  A    between atoms: _88  and  _89
REMARK   37  A    between atoms: _92  and  _94
REMARK   38  A    between atoms: _94  and  _95
REMARK   39  A    between atoms: _97  and  _99
REMARK   40  A    between atoms: _99  and  _100
REMARK   41  A    between atoms: _103  and  _105
REMARK   42  A    between atoms: _105  and  _106
REMARK   43  A    between atoms: _105  and  _108
REMARK   44  A    between atoms: _108  and  _109
REMARK   45  A    between atoms: _109  and  _110
REMARK   46  A    between atoms: _112  and  _114
REMARK   47  A    between atoms: _114  and  _115
REMARK   48  A    between atoms: _114  and  _117
REMARK   49  A    between atoms: _117  and  _118
REMARK   50  A    between atoms: _118  and  _119
REMARK   51  A    between atoms: _122  and  _124
REMARK   52  A    between atoms: _124  and  _125
REMARK   53  A    between atoms: _124  and  _127
REMARK   54  A    between atoms: _127  and  _128
REMARK   55  A    between atoms: _133  and  _135
REMARK   56  A    between atoms: _135  and  _136
REMARK   57  A    between atoms: _135  and  _138
REMARK   58  A    between atoms: _138  and  _139
REMARK   59  A    between atoms: _142  and  _144
REMARK   60  A    between atoms: _144  and  _145
REMARK   61  A    between atoms: _144  and  _147
REMARK   62  A    between atoms: _147  and  _148
REMARK   63  A    between atoms: _153  and  _154
REMARK   64  A    between atoms: _156  and  _158
REMARK   65  A    between atoms: _158  and  _159
REMARK   66  A    between atoms: _158  and  _161
REMARK   67  A    between atoms: _161  and  _162
REMARK   68  A    between atoms: _162  and  _163
REMARK   69  A    between atoms: _163  and  _164
REMARK   70  A    between atoms: _173  and  _175
REMARK   71  A    between atoms: _175  and  _176
REMARK   72  A    between atoms: _175  and  _178
REMARK   73  A    between atoms: _178  and  _179
REMARK   74  A    between atoms: _184  and  _186
REMARK   75  A    between atoms: _186  and  _187
REMARK   76  A    between atoms: _186  and  _189
REMARK   77  A    between atoms: _189  and  _190
REMARK   78  A    between atoms: _192  and  _194
REMARK   79  A    between atoms: _194  and  _195
REMARK   80  A    between atoms: _194  and  _197
REMARK   81  A    between atoms: _197  and  _198
REMARK   82  A    between atoms: _200  and  _202
REMARK   83  A    between atoms: _202  and  _203
REMARK   84  A    between atoms: _202  and  _205
REMARK   85  A    between atoms: _205  and  _206
REMARK   86  A    between atoms: _206  and  _207
REMARK   87  A    between atoms: _210  and  _212
REMARK   88  A    between atoms: _212  and  _213
REMARK   89  A    between atoms: _212  and  _215
REMARK   90  A    between atoms: _215  and  _216
REMARK   91  A    between atoms: _216  and  _217
REMARK   92  A    between atoms: _217  and  _218
REMARK   93  A    between atoms: _227  and  _229
REMARK   94  A    between atoms: _229  and  _230
REMARK   95  A    between atoms: _229  and  _232
REMARK   96  A    between atoms: _235  and  _237
REMARK   97  A    between atoms: _237  and  _238
REMARK   98  A    between atoms: _237  and  _240
REMARK   99  A    between atoms: _240  and  _241
REMARK  100  A    between atoms: _244  and  _246
REMARK  101  A    between atoms: _246  and  _247
REMARK  102  A    between atoms: _246  and  _249
REMARK  103  A    between atoms: _252  and  _254
REMARK  104  A    between atoms: _254  and  _255
REMARK  105  A    between atoms: _254  and  _257
REMARK  106  A    between atoms: _257  and  _258
REMARK  107  A    between atoms: _261  and  _263
REMARK  108  A    between atoms: _263  and  _264
REMARK  109  A    between atoms: _267  and  _269
REMARK  110  A    between atoms: _269  and  _270
REMARK  111  A    between atoms: _269  and  _272
REMARK  112  A    between atoms: _272  and  _273
REMARK  113  A    between atoms: _278  and  _280
REMARK  114  A    between atoms: _280  and  _281
REMARK  115  A    between atoms: _280  and  _283
REMARK  116  A    between atoms: _283  and  _284
REMARK  117  A    between atoms: _284  and  _285
REMARK  118  A    between atoms: _288  and  _290
REMARK  119  A    between atoms: _290  and  _291
REMARK  120  A    between atoms: _290  and  _293
REMARK  121  A    between atoms: _293  and  _294
REMARK  122  A    between atoms: _299  and  _301
REMARK  123  A    between atoms: _301  and  _302
REMARK  124  A    between atoms: _301  and  _304
REMARK  125  A    between atoms: _304  and  _305
REMARK  126  A    between atoms: _315  and  _317
REMARK  127  A    between atoms: _317  and  _318
REMARK  128  A    between atoms: _317  and  _320
REMARK  129  A    between atoms: _320  and  _321
REMARK  130  A    between atoms: _324  and  _326
REMARK  131  A    between atoms: _326  and  _327
REMARK  132  A    between atoms: _326  and  _329
REMARK  133  A    between atoms: _329  and  _330
REMARK  134  A    between atoms: _335  and  _337
REMARK  135  A    between atoms: _337  and  _338
REMARK  136  A    between atoms: _337  and  _340
REMARK  137  A    between atoms: _340  and  _341
REMARK  138  A    between atoms: _341  and  _342
REMARK  139  A    between atoms: _345  and  _347
REMARK  140  A    between atoms: _347  and  _348
REMARK  141  A    between atoms: _351  and  _353
REMARK  142  A    between atoms: _353  and  _354
REMARK  143  A    between atoms: _353  and  _356
REMARK  144  A    between atoms: _356  and  _357
REMARK  145  A    between atoms: _359  and  _361
REMARK  146  A    between atoms: _361  and  _362
REMARK  147  A    between atoms: _361  and  _364
REMARK  148  A    between atoms: _364  and  _365
REMARK  149  A    between atoms: _365  and  _366
REMARK  150  A    between atoms: _369  and  _371
REMARK  151  A    between atoms: _371  and  _372
REMARK  152  A    between atoms: _371  and  _374
REMARK  153  A    between atoms: _374  and  _375
REMARK  154  A    between atoms: _380  and  _381
REMARK  155  A    between atoms: _383  and  _385
REMARK  156  A    between atoms: _385  and  _386
REMARK  157  A    between atoms: _385  and  _388
REMARK  158  A    between atoms: _388  and  _389
REMARK  159  A    between atoms: _392  and  _394
REMARK  160  A    between atoms: _394  and  _395
REMARK  161  A    between atoms: _394  and  _397
REMARK  162  A    between atoms: _397  and  _398
REMARK  163  A    between atoms: _403  and  _405
REMARK  164  A    between atoms: _405  and  _406
REMARK  165  A    between atoms: _405  and  _408
REMARK  166  A    between atoms: _408  and  _409
REMARK  167  A    between atoms: _412  and  _414
REMARK  168  A    between atoms: _414  and  _415
REMARK  169  A    between atoms: _414  and  _417
REMARK  170  A    between atoms: _417  and  _418
REMARK  171  A    between atoms: _423  and  _424
REMARK  172  A    between atoms: _426  and  _428
REMARK  173  A    between atoms: _428  and  _429
REMARK  174  A    between atoms: _428  and  _431
REMARK  175  A    between atoms: _431  and  _432
REMARK  176  A    between atoms: _432  and  _433
REMARK  177  A    between atoms: _433  and  _434
REMARK  178  A    between atoms: _443  and  _445
REMARK  179  A    between atoms: _445  and  _446
REMARK  180  A    between atoms: _445  and  _448
REMARK  181  A    between atoms: _451  and  _453
REMARK  182  A    between atoms: _453  and  _454
REMARK  183  A    between atoms: _457  and  _459
REMARK  184  A    between atoms: _459  and  _460
REMARK  185  A    between atoms: _459  and  _462
REMARK  186  A    between atoms: _465  and  _467
REMARK  187  A    between atoms: _467  and  _468
REMARK  188  A    between atoms: _467  and  _470
REMARK  189  A    between atoms: _470  and  _471
REMARK  190  A    between atoms: _473  and  _475
REMARK  191  A    between atoms: _475  and  _476
REMARK  192  A    between atoms: _475  and  _478
REMARK  193  A    between atoms: _478  and  _479
REMARK  194  A    between atoms: _479  and  _480
REMARK  195  A    between atoms: _483  and  _485
REMARK  196  A    between atoms: _485  and  _486
REMARK  197  A    between atoms: _485  and  _488
REMARK  198  A    between atoms: _488  and  _489
REMARK  199  A    between atoms: _492  and  _494
REMARK  200  A    between atoms: _494  and  _495
REMARK  201  A    between atoms: _494  and  _497
REMARK  202  A    between atoms: _497  and  _498
REMARK  203  A    between atoms: _504  and  _506
REMARK  204  A    between atoms: _506  and  _507
REMARK  205  A    between atoms: _506  and  _509
REMARK  206  A    between atoms: _509  and  _510
REMARK  207  A    between atoms: _513  and  _515
REMARK  208  A    between atoms: _515  and  _516
REMARK  209  A    between atoms: _519  and  _521
REMARK  210  A    between atoms: _521  and  _522
REMARK  211  A    between atoms: _521  and  _524
REMARK  212  A    between atoms: _524  and  _525
REMARK  213  A    between atoms: _530  and  _531
REMARK  214  A    between atoms: _533  and  _535
REMARK  215  A    between atoms: _535  and  _536
REMARK  216  A    between atoms: _535  and  _538
REMARK  217  A    between atoms: _538  and  _539
REMARK  218  A    between atoms: _541  and  _543
REMARK  219  A    between atoms: _543  and  _544
REMARK  220  A    between atoms: _543  and  _546
REMARK  221  A    between atoms: _546  and  _547
REMARK  222  A    between atoms: _550  and  _552
REMARK  223  A    between atoms: _552  and  _553
REMARK  224  A    between atoms: _552  and  _555
REMARK  225  A    between atoms: _555  and  _556
REMARK  226  A    between atoms: _558  and  _560
REMARK  227  A    between atoms: _560  and  _561
REMARK  228  A    between atoms: _560  and  _563
REMARK  229  A    between atoms: _563  and  _564
REMARK  230  A    between atoms: _567  and  _569
REMARK  231  A    between atoms: _569  and  _570
REMARK  232  A    between atoms: _569  and  _572
REMARK  233  A    between atoms: _572  and  _573
REMARK  234  A    between atoms: _575  and  _577
REMARK  235  A    between atoms: _577  and  _578
REMARK  236  A    between atoms: _577  and  _580
REMARK  237  A    between atoms: _580  and  _581
REMARK  238  A    between atoms: _584  and  _586
REMARK  239  A    between atoms: _586  and  _587
REMARK  240  A    between atoms: _586  and  _589
REMARK  241  A    between atoms: _589  and  _590
REMARK  242  A    between atoms: _595  and  _597
REMARK  243  A    between atoms: _597  and  _598
REMARK  244  A    between atoms: _597  and  _600
REMARK  245  A    between atoms: _600  and  _601
REMARK  246  A    between atoms: _603  and  _605
REMARK  247  A    between atoms: _605  and  _606
REMARK  248  A    between atoms: _605  and  _608
REMARK  249  A    between atoms: _608  and  _609
REMARK  250  A    between atoms: _615  and  _617
REMARK  251  A    between atoms: _617  and  _618
REMARK  252  A    between atoms: _617  and  _620
REMARK  253  A    between atoms: _620  and  _621
REMARK  254  A    between atoms: _623  and  _625
REMARK  255  A    between atoms: _625  and  _626
REMARK  256  A    between atoms: _625  and  _628
REMARK  257  A    between atoms: _628  and  _629
REMARK  258  A    between atoms: _635  and  _637
REMARK  259  A    between atoms: _637  and  _638
REMARK  260  A    between atoms: _637  and  _640
REMARK  261  A    between atoms: _640  and  _641
REMARK  262  A    between atoms: _643  and  _645
REMARK  263  A    between atoms: _645  and  _646
REMARK  264  A    between atoms: _645  and  _648
REMARK  265  A    between atoms: _648  and  _649
REMARK  266  A    between atoms: _654  and  _656
REMARK  267  A    between atoms: _656  and  _657
REMARK  268  A    between atoms: _656  and  _659
REMARK  269  A    between atoms: _659  and  _660
REMARK  270  A    between atoms: _663  and  _665
REMARK  271  A    between atoms: _665  and  _666
REMARK  272  A    between atoms: _665  and  _668
REMARK  273  A    between atoms: _668  and  _669
REMARK  274  A    between atoms: _672  and  _674
REMARK  275  A    between atoms: _674  and  _675
REMARK  276  A    between atoms: _674  and  _677
REMARK  277  A    between atoms: _677  and  _678
REMARK  278  A    between atoms: _678  and  _679
REMARK  279  A    between atoms: _684  and  _686
REMARK  280  A    between atoms: _686  and  _687
REMARK  281  A    between atoms: _690  and  _692
REMARK  282  A    between atoms: _692  and  _693
REMARK  283  A    between atoms: _692  and  _695
REMARK  284  A    between atoms: _698  and  _700
REMARK  285  A    between atoms: _700  and  _701
REMARK  286  A    between atoms: _700  and  _703
REMARK  287  A    between atoms: _703  and  _704
REMARK  288  A    between atoms: _707  and  _709
REMARK  289  A    between atoms: _709  and  _710
REMARK  290  A    between atoms: _709  and  _712
REMARK  291  A    between atoms: _712  and  _713
REMARK  292  A    between atoms: _713  and  _714
REMARK  293  A    between atoms: _714  and  _715
REMARK  294  A    between atoms: _724  and  _726
REMARK  295  A    between atoms: _726  and  _727
REMARK  296  A    between atoms: _726  and  _729
REMARK  297  A    between atoms: _729  and  _730
REMARK  298  A    between atoms: _730  and  _731
REMARK  299  A    between atoms: _731  and  _732
REMARK  300  A    between atoms: _732  and  _733
REMARK                            x       y       z     vdW  Elec       q    Type
REMARK                         _______ _______ _______ _____ _____    ______ ____
ROOT
ATOM      1  O   HOH     1      91.388  22.753  21.119  0.00  0.00    +0.000 OA
ENDROOT
TORSDOF 0
REMARK  Name = ../refined-set-2016/4fys/4fys_pocket.pdb
REMARK  300 active torsions:
REMARK  status: ('A' for Active; 'I' for Inactive)
REMARK    1  A    between atoms: _1  and  _3
REMARK    2  A    between atoms: _3  and  _4
REMARK    3  A    between atoms: _3  and  _6
REMARK    4  A    between atoms: _6  and  _7
REMARK    5  A    between atoms: _7  and  _8
REMARK    6  A    between atoms: _13  and  _15
REMARK    7  A    between atoms: _15  and  _16
REMARK    8  A    between atoms: _15  and  _18
REMARK    9  A    between atoms: _18  and  _19
REMARK   10  A    between atoms: _19  and  _20
REMARK   11  A    between atoms: _22  and  _24
REMARK   12  A    between atoms: _24  and  _25
REMARK   13  A    between atoms: _24  and  _27
REMARK   14  A    between atoms: _27  and  _28
REMARK   15  A    between atoms: _28  and  _29
REMARK   16  A    between atoms: _34  and  _36
REMARK   17  A    between atoms: _36  and  _37
REMARK   18  A    between atoms: _40  and  _42
REMARK   19  A    between atoms: _42  and  _43
REMARK   20  A    between atoms: _42  and  _45
REMARK   21  A    between atoms: _45  and  _46
REMARK   22  A    between atoms: _51  and  _52
REMARK   23  A    between atoms: _54  and  _56
REMARK   24  A    between atoms: _56  and  _57
REMARK   25  A    between atoms: _56  and  _59
REMARK   26  A    between atoms: _59  and  _60
REMARK   27  A    between atoms: _63  and  _65
REMARK   28  A    between atoms: _65  and  _66
REMARK   29  A    between atoms: _65  and  _68
REMARK   30  A    between atoms: _68  and  _69
REMARK   31  A    between atoms: _75  and  _77
REMARK   32  A    between atoms: _77  and  _78
REMARK   33  A    between atoms: _77  and  _80
REMARK   34  A    between atoms: _80  and  _81
REMARK   35  A    between atoms: _86  and  _88
REMARK   36  A    between atoms: _88  and  _89
REMARK   37  A    between atoms: _92  and  _94
REMARK   38  A    between atoms: _94  and  _95
REMARK   39  A    between atoms: _97  and  _99
REMARK   40  A    between atoms: _99  and  _100
REMARK   41  A    between atoms: _103  and  _105
REMARK   42  A    between atoms: _105  and  _106
REMARK   43  A    between atoms: _105  and  _108
REMARK   44  A    between atoms: _108  and  _109
REMARK   45  A    between atoms: _109  and  _110
REMARK   46  A    between atoms: _112  and  _114
REMARK   47  A    between atoms: _114  and  _115
REMARK   48  A    between atoms: _114  and  _117
REMARK   49  A    between atoms: _117  and  _118
REMARK   50  A    between atoms: _118  and  _119
REMARK   51  A    between atoms: _122  and  _124
REMARK   52  A    between atoms: _124  and  _125
REMARK   53  A    between atoms: _124  and  _127
REMARK   54  A    between atoms: _127  and  _128
REMARK   55  A    between atoms: _133  and  _135
REMARK   56  A    between atoms: _135  and  _136
REMARK   57  A    between atoms: _135  and  _138
REMARK   58  A    between atoms: _138  and  _139
REMARK   59  A    between atoms: _142  and  _144
REMARK   60  A    between atoms: _144  and  _145
REMARK   61  A    between atoms: _144  and  _147
REMARK   62  A    between atoms: _147  and  _148
REMARK   63  A    between atoms: _153  and  _154
REMARK   64  A    between atoms: _156  and  _158
REMARK   65  A    between atoms: _158  and  _159
REMARK   66  A    between atoms: _158  and  _161
REMARK   67  A    between atoms: _161  and  _162
REMARK   68  A    between atoms: _162  and  _163
REMARK   69  A    between atoms: _163  and  _164
REMARK   70  A    between atoms: _173  and  _175
REMARK   71  A    between atoms: _175  and  _176
REMARK   72  A    between atoms: _175  and  _178
REMARK   73  A    between atoms: _178  and  _179
REMARK   74  A    between atoms: _184  and  _186
REMARK   75  A    between atoms: _186  and  _187
REMARK   76  A    between atoms: _186  and  _189
REMARK   77  A    between atoms: _189  and  _190
REMARK   78  A    between atoms: _192  and  _194
REMARK   79  A    between atoms: _194  and  _195
REMARK   80  A    between atoms: _194  and  _197
REMARK   81  A    between atoms: _197  and  _198
REMARK   82  A    between atoms: _200  and  _202
REMARK   83  A    between atoms: _202  and  _203
REMARK   84  A    between atoms: _202  and  _205
REMARK   85  A    between atoms: _205  and  _206
REMARK   86  A    between atoms: _206  and  _207
REMARK   87  A    between atoms: _210  and  _212
REMARK   88  A    between atoms: _212  and  _213
REMARK   89  A    between atoms: _212  and  _215
REMARK   90  A    between atoms: _215  and  _216
REMARK   91  A    between atoms: _216  and  _217
REMARK   92  A    between atoms: _217  and  _218
REMARK   93  A    between atoms: _227  and  _229
REMARK   94  A    between atoms: _229  and  _230
REMARK   95  A    between atoms: _229  and  _232
REMARK   96  A    between atoms: _235  and  _237
REMARK   97  A    between atoms: _237  and  _238
REMARK   98  A    between atoms: _237  and  _240
REMARK   99  A    between atoms: _240  and  _241
REMARK  100  A    between atoms: _244  and  _246
REMARK  101  A    between atoms: _246  and  _247
REMARK  102  A    between atoms: _246  and  _249
REMARK  103  A    between atoms: _252  and  _254
REMARK  104  A    between atoms: _254  and  _255
REMARK  105  A    between atoms: _254  and  _257
REMARK  106  A    between atoms: _257  and  _258
REMARK  107  A    between atoms: _261  and  _263
REMARK  108  A    between atoms: _263  and  _264
REMARK  109  A    between atoms: _267  and  _269
REMARK  110  A    between atoms: _269  and  _270
REMARK  111  A    between atoms: _269  and  _272
REMARK  112  A    between atoms: _272  and  _273
REMARK  113  A    between atoms: _278  and  _280
REMARK  114  A    between atoms: _280  and  _281
REMARK  115  A    between atoms: _280  and  _283
REMARK  116  A    between atoms: _283  and  _284
REMARK  117  A    between atoms: _284  and  _285
REMARK  118  A    between atoms: _288  and  _290
REMARK  119  A    between atoms: _290  and  _291
REMARK  120  A    between atoms: _290  and  _293
REMARK  121  A    between atoms: _293  and  _294
REMARK  122  A    between atoms: _299  and  _301
REMARK  123  A    between atoms: _301  and  _302
REMARK  124  A    between atoms: _301  and  _304
REMARK  125  A    between atoms: _304  and  _305
REMARK  126  A    between atoms: _315  and  _317
REMARK  127  A    between atoms: _317  and  _318
REMARK  128  A    between atoms: _317  and  _320
REMARK  129  A    between atoms: _320  and  _321
REMARK  130  A    between atoms: _324  and  _326
REMARK  131  A    between atoms: _326  and  _327
REMARK  132  A    between atoms: _326  and  _329
REMARK  133  A    between atoms: _329  and  _330
REMARK  134  A    between atoms: _335  and  _337
REMARK  135  A    between atoms: _337  and  _338
REMARK  136  A    between atoms: _337  and  _340
REMARK  137  A    between atoms: _340  and  _341
REMARK  138  A    between atoms: _341  and  _342
REMARK  139  A    between atoms: _345  and  _347
REMARK  140  A    between atoms: _347  and  _348
REMARK  141  A    between atoms: _351  and  _353
REMARK  142  A    between atoms: _353  and  _354
REMARK  143  A    between atoms: _353  and  _356
REMARK  144  A    between atoms: _356  and  _357
REMARK  145  A    between atoms: _359  and  _361
REMARK  146  A    between atoms: _361  and  _362
REMARK  147  A    between atoms: _361  and  _364
REMARK  148  A    between atoms: _364  and  _365
REMARK  149  A    between atoms: _365  and  _366
REMARK  150  A    between atoms: _369  and  _371
REMARK  151  A    between atoms: _371  and  _372
REMARK  152  A    between atoms: _371  and  _374
REMARK  153  A    between atoms: _374  and  _375
REMARK  154  A    between atoms: _380  and  _381
REMARK  155  A    between atoms: _383  and  _385
REMARK  156  A    between atoms: _385  and  _386
REMARK  157  A    between atoms: _385  and  _388
REMARK  158  A    between atoms: _388  and  _389
REMARK  159  A    between atoms: _392  and  _394
REMARK  160  A    between atoms: _394  and  _395
REMARK  161  A    between atoms: _394  and  _397
REMARK  162  A    between atoms: _397  and  _398
REMARK  163  A    between atoms: _403  and  _405
REMARK  164  A    between atoms: _405  and  _406
REMARK  165  A    between atoms: _405  and  _408
REMARK  166  A    between atoms: _408  and  _409
REMARK  167  A    between atoms: _412  and  _414
REMARK  168  A    between atoms: _414  and  _415
REMARK  169  A    between atoms: _414  and  _417
REMARK  170  A    between atoms: _417  and  _418
REMARK  171  A    between atoms: _423  and  _424
REMARK  172  A    between atoms: _426  and  _428
REMARK  173  A    between atoms: _428  and  _429
REMARK  174  A    between atoms: _428  and  _431
REMARK  175  A    between atoms: _431  and  _432
REMARK  176  A    between atoms: _432  and  _433
REMARK  177  A    between atoms: _433  and  _434
REMARK  178  A    between atoms: _443  and  _445
REMARK  179  A    between atoms: _445  and  _446
REMARK  180  A    between atoms: _445  and  _448
REMARK  181  A    between atoms: _451  and  _453
REMARK  182  A    between atoms: _453  and  _454
REMARK  183  A    between atoms: _457  and  _459
REMARK  184  A    between atoms: _459  and  _460
REMARK  185  A    between atoms: _459  and  _462
REMARK  186  A    between atoms: _465  and  _467
REMARK  187  A    between atoms: _467  and  _468
REMARK  188  A    between atoms: _467  and  _470
REMARK  189  A    between atoms: _470  and  _471
REMARK  190  A    between atoms: _473  and  _475
REMARK  191  A    between atoms: _475  and  _476
REMARK  192  A    between atoms: _475  and  _478
REMARK  193  A    between atoms: _478  and  _479
REMARK  194  A    between atoms: _479  and  _480
REMARK  195  A    between atoms: _483  and  _485
REMARK  196  A    between atoms: _485  and  _486
REMARK  197  A    between atoms: _485  and  _488
REMARK  198  A    between atoms: _488  and  _489
REMARK  199  A    between atoms: _492  and  _494
REMARK  200  A    between atoms: _494  and  _495
REMARK  201  A    between atoms: _494  and  _497
REMARK  202  A    between atoms: _497  and  _498
REMARK  203  A    between atoms: _504  and  _506
REMARK  204  A    between atoms: _506  and  _507
REMARK  205  A    between atoms: _506  and  _509
REMARK  206  A    between atoms: _509  and  _510
REMARK  207  A    between atoms: _513  and  _515
REMARK  208  A    between atoms: _515  and  _516
REMARK  209  A    between atoms: _519  and  _521
REMARK  210  A    between atoms: _521  and  _522
REMARK  211  A    between atoms: _521  and  _524
REMARK  212  A    between atoms: _524  and  _525
REMARK  213  A    between atoms: _530  and  _531
REMARK  214  A    between atoms: _533  and  _535
REMARK  215  A    between atoms: _535  and  _536
REMARK  216  A    between atoms: _535  and  _538
REMARK  217  A    between atoms: _538  and  _539
REMARK  218  A    between atoms: _541  and  _543
REMARK  219  A    between atoms: _543  and  _544
REMARK  220  A    between atoms: _543  and  _546
REMARK  221  A    between atoms: _546  and  _547
REMARK  222  A    between atoms: _550  and  _552
REMARK  223  A    between atoms: _552  and  _553
REMARK  224  A    between atoms: _552  and  _555
REMARK  225  A    between atoms: _555  and  _556
REMARK  226  A    between atoms: _558  and  _560
REMARK  227  A    between atoms: _560  and  _561
REMARK  228  A    between atoms: _560  and  _563
REMARK  229  A    between atoms: _563  and  _564
REMARK  230  A    between atoms: _567  and  _569
REMARK  231  A    between atoms: _569  and  _570
REMARK  232  A    between atoms: _569  and  _572
REMARK  233  A    between atoms: _572  and  _573
REMARK  234  A    between atoms: _575  and  _577
REMARK  235  A    between atoms: _577  and  _578
REMARK  236  A    between atoms: _577  and  _580
REMARK  237  A    between atoms: _580  and  _581
REMARK  238  A    between atoms: _584  and  _586
REMARK  239  A    between atoms: _586  and  _587
REMARK  240  A    between atoms: _586  and  _589
REMARK  241  A    between atoms: _589  and  _590
REMARK  242  A    between atoms: _595  and  _597
REMARK  243  A    between atoms: _597  and  _598
REMARK  244  A    between atoms: _597  and  _600
REMARK  245  A    between atoms: _600  and  _601
REMARK  246  A    between atoms: _603  and  _605
REMARK  247  A    between atoms: _605  and  _606
REMARK  248  A    between atoms: _605  and  _608
REMARK  249  A    between atoms: _608  and  _609
REMARK  250  A    between atoms: _615  and  _617
REMARK  251  A    between atoms: _617  and  _618
REMARK  252  A    between atoms: _617  and  _620
REMARK  253  A    between atoms: _620  and  _621
REMARK  254  A    between atoms: _623  and  _625
REMARK  255  A    between atoms: _625  and  _626
REMARK  256  A    between atoms: _625  and  _628
REMARK  257  A    between atoms: _628  and  _629
REMARK  258  A    between atoms: _635  and  _637
REMARK  259  A    between atoms: _637  and  _638
REMARK  260  A    between atoms: _637  and  _640
REMARK  261  A    between atoms: _640  and  _641
REMARK  262  A    between atoms: _643  and  _645
REMARK  263  A    between atoms: _645  and  _646
REMARK  264  A    between atoms: _645  and  _648
REMARK  265  A    between atoms: _648  and  _649
REMARK  266  A    between atoms: _654  and  _656
REMARK  267  A    between atoms: _656  and  _657
REMARK  268  A    between atoms: _656  and  _659
REMARK  269  A    between atoms: _659  and  _660
REMARK  270  A    between atoms: _663  and  _665
REMARK  271  A    between atoms: _665  and  _666
REMARK  272  A    between atoms: _665  and  _668
REMARK  273  A    between atoms: _668  and  _669
REMARK  274  A    between atoms: _672  and  _674
REMARK  275  A    between atoms: _674  and  _675
REMARK  276  A    between atoms: _674  and  _677
REMARK  277  A    between atoms: _677  and  _678
REMARK  278  A    between atoms: _678  and  _679
REMARK  279  A    between atoms: _684  and  _686
REMARK  280  A    between atoms: _686  and  _687
REMARK  281  A    between atoms: _690  and  _692
REMARK  282  A    between atoms: _692  and  _693
REMARK  283  A    between atoms: _692  and  _695
REMARK  284  A    between atoms: _698  and  _700
REMARK  285  A    between atoms: _700  and  _701
REMARK  286  A    between atoms: _700  and  _703
REMARK  287  A    between atoms: _703  and  _704
REMARK  288  A    between atoms: _707  and  _709
REMARK  289  A    between atoms: _709  and  _710
REMARK  290  A    between atoms: _709  and  _712
REMARK  291  A    between atoms: _712  and  _713
REMARK  292  A    between atoms: _713  and  _714
REMARK  293  A    between atoms: _714  and  _715
REMARK  294  A    between atoms: _724  and  _726
REMARK  295  A    between atoms: _726  and  _727
REMARK  296  A    between atoms: _726  and  _729
REMARK  297  A    between atoms: _729  and  _730
REMARK  298  A    between atoms: _730  and  _731
REMARK  299  A    between atoms: _731  and  _732
REMARK  300  A    between atoms: _732  and  _733
REMARK                            x       y       z     vdW  Elec       q    Type
REMARK                         _______ _______ _______ _____ _____    ______ ____
ROOT
ATOM      1  O   HOH     1      95.456  10.021  13.863  0.00  0.00    +0.000 OA
ENDROOT
TORSDOF 0
REMARK  Name = ../refined-set-2016/4fys/4fys_pocket.pdb
REMARK  300 active torsions:
REMARK  status: ('A' for Active; 'I' for Inactive)
REMARK    1  A    between atoms: _1  and  _3
REMARK    2  A    between atoms: _3  and  _4
REMARK    3  A    between atoms: _3  and  _6
REMARK    4  A    between atoms: _6  and  _7
REMARK    5  A    between atoms: _7  and  _8
REMARK    6  A    between atoms: _13  and  _15
REMARK    7  A    between atoms: _15  and  _16
REMARK    8  A    between atoms: _15  and  _18
REMARK    9  A    between atoms: _18  and  _19
REMARK   10  A    between atoms: _19  and  _20
REMARK   11  A    between atoms: _22  and  _24
REMARK   12  A    between atoms: _24  and  _25
REMARK   13  A    between atoms: _24  and  _27
REMARK   14  A    between atoms: _27  and  _28
REMARK   15  A    between atoms: _28  and  _29
REMARK   16  A    between atoms: _34  and  _36
REMARK   17  A    between atoms: _36  and  _37
REMARK   18  A    between atoms: _40  and  _42
REMARK   19  A    between atoms: _42  and  _43
REMARK   20  A    between atoms: _42  and  _45
REMARK   21  A    between atoms: _45  and  _46
REMARK   22  A    between atoms: _51  and  _52
REMARK   23  A    between atoms: _54  and  _56
REMARK   24  A    between atoms: _56  and  _57
REMARK   25  A    between atoms: _56  and  _59
REMARK   26  A    between atoms: _59  and  _60
REMARK   27  A    between atoms: _63  and  _65
REMARK   28  A    between atoms: _65  and  _66
REMARK   29  A    between atoms: _65  and  _68
REMARK   30  A    between atoms: _68  and  _69
REMARK   31  A    between atoms: _75  and  _77
REMARK   32  A    between atoms: _77  and  _78
REMARK   33  A    between atoms: _77  and  _80
REMARK   34  A    between atoms: _80  and  _81
REMARK   35  A    between atoms: _86  and  _88
REMARK   36  A    between atoms: _88  and  _89
REMARK   37  A    between atoms: _92  and  _94
REMARK   38  A    between atoms: _94  and  _95
REMARK   39  A    between atoms: _97  and  _99
REMARK   40  A    between atoms: _99  and  _100
REMARK   41  A    between atoms: _103  and  _105
REMARK   42  A    between atoms: _105  and  _106
REMARK   43  A    between atoms: _105  and  _108
REMARK   44  A    between atoms: _108  and  _109
REMARK   45  A    between atoms: _109  and  _110
REMARK   46  A    between atoms: _112  and  _114
REMARK   47  A    between atoms: _114  and  _115
REMARK   48  A    between atoms: _114  and  _117
REMARK   49  A    between atoms: _117  and  _118
REMARK   50  A    between atoms: _118  and  _119
REMARK   51  A    between atoms: _122  and  _124
REMARK   52  A    between atoms: _124  and  _125
REMARK   53  A    between atoms: _124  and  _127
REMARK   54  A    between atoms: _127  and  _128
REMARK   55  A    between atoms: _133  and  _135
REMARK   56  A    between atoms: _135  and  _136
REMARK   57  A    between atoms: _135  and  _138
REMARK   58  A    between atoms: _138  and  _139
REMARK   59  A    between atoms: _142  and  _144
REMARK   60  A    between atoms: _144  and  _145
REMARK   61  A    between atoms: _144  and  _147
REMARK   62  A    between atoms: _147  and  _148
REMARK   63  A    between atoms: _153  and  _154
REMARK   64  A    between atoms: _156  and  _158
REMARK   65  A    between atoms: _158  and  _159
REMARK   66  A    between atoms: _158  and  _161
REMARK   67  A    between atoms: _161  and  _162
REMARK   68  A    between atoms: _162  and  _163
REMARK   69  A    between atoms: _163  and  _164
REMARK   70  A    between atoms: _173  and  _175
REMARK   71  A    between atoms: _175  and  _176
REMARK   72  A    between atoms: _175  and  _178
REMARK   73  A    between atoms: _178  and  _179
REMARK   74  A    between atoms: _184  and  _186
REMARK   75  A    between atoms: _186  and  _187
REMARK   76  A    between atoms: _186  and  _189
REMARK   77  A    between atoms: _189  and  _190
REMARK   78  A    between atoms: _192  and  _194
REMARK   79  A    between atoms: _194  and  _195
REMARK   80  A    between atoms: _194  and  _197
REMARK   81  A    between atoms: _197  and  _198
REMARK   82  A    between atoms: _200  and  _202
REMARK   83  A    between atoms: _202  and  _203
REMARK   84  A    between atoms: _202  and  _205
REMARK   85  A    between atoms: _205  and  _206
REMARK   86  A    between atoms: _206  and  _207
REMARK   87  A    between atoms: _210  and  _212
REMARK   88  A    between atoms: _212  and  _213
REMARK   89  A    between atoms: _212  and  _215
REMARK   90  A    between atoms: _215  and  _216
REMARK   91  A    between atoms: _216  and  _217
REMARK   92  A    between atoms: _217  and  _218
REMARK   93  A    between atoms: _227  and  _229
REMARK   94  A    between atoms: _229  and  _230
REMARK   95  A    between atoms: _229  and  _232
REMARK   96  A    between atoms: _235  and  _237
REMARK   97  A    between atoms: _237  and  _238
REMARK   98  A    between atoms: _237  and  _240
REMARK   99  A    between atoms: _240  and  _241
REMARK  100  A    between atoms: _244  and  _246
REMARK  101  A    between atoms: _246  and  _247
REMARK  102  A    between atoms: _246  and  _249
REMARK  103  A    between atoms: _252  and  _254
REMARK  104  A    between atoms: _254  and  _255
REMARK  105  A    between atoms: _254  and  _257
REMARK  106  A    between atoms: _257  and  _258
REMARK  107  A    between atoms: _261  and  _263
REMARK  108  A    between atoms: _263  and  _264
REMARK  109  A    between atoms: _267  and  _269
REMARK  110  A    between atoms: _269  and  _270
REMARK  111  A    between atoms: _269  and  _272
REMARK  112  A    between atoms: _272  and  _273
REMARK  113  A    between atoms: _278  and  _280
REMARK  114  A    between atoms: _280  and  _281
REMARK  115  A    between atoms: _280  and  _283
REMARK  116  A    between atoms: _283  and  _284
REMARK  117  A    between atoms: _284  and  _285
REMARK  118  A    between atoms: _288  and  _290
REMARK  119  A    between atoms: _290  and  _291
REMARK  120  A    between atoms: _290  and  _293
REMARK  121  A    between atoms: _293  and  _294
REMARK  122  A    between atoms: _299  and  _301
REMARK  123  A    between atoms: _301  and  _302
REMARK  124  A    between atoms: _301  and  _304
REMARK  125  A    between atoms: _304  and  _305
REMARK  126  A    between atoms: _315  and  _317
REMARK  127  A    between atoms: _317  and  _318
REMARK  128  A    between atoms: _317  and  _320
REMARK  129  A    between atoms: _320  and  _321
REMARK  130  A    between atoms: _324  and  _326
REMARK  131  A    between atoms: _326  and  _327
REMARK  132  A    between atoms: _326  and  _329
REMARK  133  A    between atoms: _329  and  _330
REMARK  134  A    between atoms: _335  and  _337
REMARK  135  A    between atoms: _337  and  _338
REMARK  136  A    between atoms: _337  and  _340
REMARK  137  A    between atoms: _340  and  _341
REMARK  138  A    between atoms: _341  and  _342
REMARK  139  A    between atoms: _345  and  _347
REMARK  140  A    between atoms: _347  and  _348
REMARK  141  A    between atoms: _351  and  _353
REMARK  142  A    between atoms: _353  and  _354
REMARK  143  A    between atoms: _353  and  _356
REMARK  144  A    between atoms: _356  and  _357
REMARK  145  A    between atoms: _359  and  _361
REMARK  146  A    between atoms: _361  and  _362
REMARK  147  A    between atoms: _361  and  _364
REMARK  148  A    between atoms: _364  and  _365
REMARK  149  A    between atoms: _365  and  _366
REMARK  150  A    between atoms: _369  and  _371
REMARK  151  A    between atoms: _371  and  _372
REMARK  152  A    between atoms: _371  and  _374
REMARK  153  A    between atoms: _374  and  _375
REMARK  154  A    between atoms: _380  and  _381
REMARK  155  A    between atoms: _383  and  _385
REMARK  156  A    between atoms: _385  and  _386
REMARK  157  A    between atoms: _385  and  _388
REMARK  158  A    between atoms: _388  and  _389
REMARK  159  A    between atoms: _392  and  _394
REMARK  160  A    between atoms: _394  and  _395
REMARK  161  A    between atoms: _394  and  _397
REMARK  162  A    between atoms: _397  and  _398
REMARK  163  A    between atoms: _403  and  _405
REMARK  164  A    between atoms: _405  and  _406
REMARK  165  A    between atoms: _405  and  _408
REMARK  166  A    between atoms: _408  and  _409
REMARK  167  A    between atoms: _412  and  _414
REMARK  168  A    between atoms: _414  and  _415
REMARK  169  A    between atoms: _414  and  _417
REMARK  170  A    between atoms: _417  and  _418
REMARK  171  A    between atoms: _423  and  _424
REMARK  172  A    between atoms: _426  and  _428
REMARK  173  A    between atoms: _428  and  _429
REMARK  174  A    between atoms: _428  and  _431
REMARK  175  A    between atoms: _431  and  _432
REMARK  176  A    between atoms: _432  and  _433
REMARK  177  A    between atoms: _433  and  _434
REMARK  178  A    between atoms: _443  and  _445
REMARK  179  A    between atoms: _445  and  _446
REMARK  180  A    between atoms: _445  and  _448
REMARK  181  A    between atoms: _451  and  _453
REMARK  182  A    between atoms: _453  and  _454
REMARK  183  A    between atoms: _457  and  _459
REMARK  184  A    between atoms: _459  and  _460
REMARK  185  A    between atoms: _459  and  _462
REMARK  186  A    between atoms: _465  and  _467
REMARK  187  A    between atoms: _467  and  _468
REMARK  188  A    between atoms: _467  and  _470
REMARK  189  A    between atoms: _470  and  _471
REMARK  190  A    between atoms: _473  and  _475
REMARK  191  A    between atoms: _475  and  _476
REMARK  192  A    between atoms: _475  and  _478
REMARK  193  A    between atoms: _478  and  _479
REMARK  194  A    between atoms: _479  and  _480
REMARK  195  A    between atoms: _483  and  _485
REMARK  196  A    between atoms: _485  and  _486
REMARK  197  A    between atoms: _485  and  _488
REMARK  198  A    between atoms: _488  and  _489
REMARK  199  A    between atoms: _492  and  _494
REMARK  200  A    between atoms: _494  and  _495
REMARK  201  A    between atoms: _494  and  _497
REMARK  202  A    between atoms: _497  and  _498
REMARK  203  A    between atoms: _504  and  _506
REMARK  204  A    between atoms: _506  and  _507
REMARK  205  A    between atoms: _506  and  _509
REMARK  206  A    between atoms: _509  and  _510
REMARK  207  A    between atoms: _513  and  _515
REMARK  208  A    between atoms: _515  and  _516
REMARK  209  A    between atoms: _519  and  _521
REMARK  210  A    between atoms: _521  and  _522
REMARK  211  A    between atoms: _521  and  _524
REMARK  212  A    between atoms: _524  and  _525
REMARK  213  A    between atoms: _530  and  _531
REMARK  214  A    between atoms: _533  and  _535
REMARK  215  A    between atoms: _535  and  _536
REMARK  216  A    between atoms: _535  and  _538
REMARK  217  A    between atoms: _538  and  _539
REMARK  218  A    between atoms: _541  and  _543
REMARK  219  A    between atoms: _543  and  _544
REMARK  220  A    between atoms: _543  and  _546
REMARK  221  A    between atoms: _546  and  _547
REMARK  222  A    between atoms: _550  and  _552
REMARK  223  A    between atoms: _552  and  _553
REMARK  224  A    between atoms: _552  and  _555
REMARK  225  A    between atoms: _555  and  _556
REMARK  226  A    between atoms: _558  and  _560
REMARK  227  A    between atoms: _560  and  _561
REMARK  228  A    between atoms: _560  and  _563
REMARK  229  A    between atoms: _563  and  _564
REMARK  230  A    between atoms: _567  and  _569
REMARK  231  A    between atoms: _569  and  _570
REMARK  232  A    between atoms: _569  and  _572
REMARK  233  A    between atoms: _572  and  _573
REMARK  234  A    between atoms: _575  and  _577
REMARK  235  A    between atoms: _577  and  _578
REMARK  236  A    between atoms: _577  and  _580
REMARK  237  A    between atoms: _580  and  _581
REMARK  238  A    between atoms: _584  and  _586
REMARK  239  A    between atoms: _586  and  _587
REMARK  240  A    between atoms: _586  and  _589
REMARK  241  A    between atoms: _589  and  _590
REMARK  242  A    between atoms: _595  and  _597
REMARK  243  A    between atoms: _597  and  _598
REMARK  244  A    between atoms: _597  and  _600
REMARK  245  A    between atoms: _600  and  _601
REMARK  246  A    between atoms: _603  and  _605
REMARK  247  A    between atoms: _605  and  _606
REMARK  248  A    between atoms: _605  and  _608
REMARK  249  A    between atoms: _608  and  _609
REMARK  250  A    between atoms: _615  and  _617
REMARK  251  A    between atoms: _617  and  _618
REMARK  252  A    between atoms: _617  and  _620
REMARK  253  A    between atoms: _620  and  _621
REMARK  254  A    between atoms: _623  and  _625
REMARK  255  A    between atoms: _625  and  _626
REMARK  256  A    between atoms: _625  and  _628
REMARK  257  A    between atoms: _628  and  _629
REMARK  258  A    between atoms: _635  and  _637
REMARK  259  A    between atoms: _637  and  _638
REMARK  260  A    between atoms: _637  and  _640
REMARK  261  A    between atoms: _640  and  _641
REMARK  262  A    between atoms: _643  and  _645
REMARK  263  A    between atoms: _645  and  _646
REMARK  264  A    between atoms: _645  and  _648
REMARK  265  A    between atoms: _648  and  _649
REMARK  266  A    between atoms: _654  and  _656
REMARK  267  A    between atoms: _656  and  _657
REMARK  268  A    between atoms: _656  and  _659
REMARK  269  A    between atoms: _659  and  _660
REMARK  270  A    between atoms: _663  and  _665
REMARK  271  A    between atoms: _665  and  _666
REMARK  272  A    between atoms: _665  and  _668
REMARK  273  A    between atoms: _668  and  _669
REMARK  274  A    between atoms: _672  and  _674
REMARK  275  A    between atoms: _674  and  _675
REMARK  276  A    between atoms: _674  and  _677
REMARK  277  A    between atoms: _677  and  _678
REMARK  278  A    between atoms: _678  and  _679
REMARK  279  A    between atoms: _684  and  _686
REMARK  280  A    between atoms: _686  and  _687
REMARK  281  A    between atoms: _690  and  _692
REMARK  282  A    between atoms: _692  and  _693
REMARK  283  A    between atoms: _692  and  _695
REMARK  284  A    between atoms: _698  and  _700
REMARK  285  A    between atoms: _700  and  _701
REMARK  286  A    between atoms: _700  and  _703
REMARK  287  A    between atoms: _703  and  _704
REMARK  288  A    between atoms: _707  and  _709
REMARK  289  A    between atoms: _709  and  _710
REMARK  290  A    between atoms: _709  and  _712
REMARK  291  A    between atoms: _712  and  _713
REMARK  292  A    between atoms: _713  and  _714
REMARK  293  A    between atoms: _714  and  _715
REMARK  294  A    between atoms: _724  and  _726
REMARK  295  A    between atoms: _726  and  _727
REMARK  296  A    between atoms: _726  and  _729
REMARK  297  A    between atoms: _729  and  _730
REMARK  298  A    between atoms: _730  and  _731
REMARK  299  A    between atoms: _731  and  _732
REMARK  300  A    between atoms: _732  and  _733
REMARK                            x       y       z     vdW  Elec       q    Type
REMARK                         _______ _______ _______ _____ _____    ______ ____
ROOT
ATOM      1  O   HOH     1      86.144  18.056  15.641  0.00  0.00    +0.000 OA
ENDROOT
TORSDOF 0
REMARK  Name = ../refined-set-2016/4fys/4fys_pocket.pdb
REMARK  300 active torsions:
REMARK  status: ('A' for Active; 'I' for Inactive)
REMARK    1  A    between atoms: _1  and  _3
REMARK    2  A    between atoms: _3  and  _4
REMARK    3  A    between atoms: _3  and  _6
REMARK    4  A    between atoms: _6  and  _7
REMARK    5  A    between atoms: _7  and  _8
REMARK    6  A    between atoms: _13  and  _15
REMARK    7  A    between atoms: _15  and  _16
REMARK    8  A    between atoms: _15  and  _18
REMARK    9  A    between atoms: _18  and  _19
REMARK   10  A    between atoms: _19  and  _20
REMARK   11  A    between atoms: _22  and  _24
REMARK   12  A    between atoms: _24  and  _25
REMARK   13  A    between atoms: _24  and  _27
REMARK   14  A    between atoms: _27  and  _28
REMARK   15  A    between atoms: _28  and  _29
REMARK   16  A    between atoms: _34  and  _36
REMARK   17  A    between atoms: _36  and  _37
REMARK   18  A    between atoms: _40  and  _42
REMARK   19  A    between atoms: _42  and  _43
REMARK   20  A    between atoms: _42  and  _45
REMARK   21  A    between atoms: _45  and  _46
REMARK   22  A    between atoms: _51  and  _52
REMARK   23  A    between atoms: _54  and  _56
REMARK   24  A    between atoms: _56  and  _57
REMARK   25  A    between atoms: _56  and  _59
REMARK   26  A    between atoms: _59  and  _60
REMARK   27  A    between atoms: _63  and  _65
REMARK   28  A    between atoms: _65  and  _66
REMARK   29  A    between atoms: _65  and  _68
REMARK   30  A    between atoms: _68  and  _69
REMARK   31  A    between atoms: _75  and  _77
REMARK   32  A    between atoms: _77  and  _78
REMARK   33  A    between atoms: _77  and  _80
REMARK   34  A    between atoms: _80  and  _81
REMARK   35  A    between atoms: _86  and  _88
REMARK   36  A    between atoms: _88  and  _89
REMARK   37  A    between atoms: _92  and  _94
REMARK   38  A    between atoms: _94  and  _95
REMARK   39  A    between atoms: _97  and  _99
REMARK   40  A    between atoms: _99  and  _100
REMARK   41  A    between atoms: _103  and  _105
REMARK   42  A    between atoms: _105  and  _106
REMARK   43  A    between atoms: _105  and  _108
REMARK   44  A    between atoms: _108  and  _109
REMARK   45  A    between atoms: _109  and  _110
REMARK   46  A    between atoms: _112  and  _114
REMARK   47  A    between atoms: _114  and  _115
REMARK   48  A    between atoms: _114  and  _117
REMARK   49  A    between atoms: _117  and  _118
REMARK   50  A    between atoms: _118  and  _119
REMARK   51  A    between atoms: _122  and  _124
REMARK   52  A    between atoms: _124  and  _125
REMARK   53  A    between atoms: _124  and  _127
REMARK   54  A    between atoms: _127  and  _128
REMARK   55  A    between atoms: _133  and  _135
REMARK   56  A    between atoms: _135  and  _136
REMARK   57  A    between atoms: _135  and  _138
REMARK   58  A    between atoms: _138  and  _139
REMARK   59  A    between atoms: _142  and  _144
REMARK   60  A    between atoms: _144  and  _145
REMARK   61  A    between atoms: _144  and  _147
REMARK   62  A    between atoms: _147  and  _148
REMARK   63  A    between atoms: _153  and  _154
REMARK   64  A    between atoms: _156  and  _158
REMARK   65  A    between atoms: _158  and  _159
REMARK   66  A    between atoms: _158  and  _161
REMARK   67  A    between atoms: _161  and  _162
REMARK   68  A    between atoms: _162  and  _163
REMARK   69  A    between atoms: _163  and  _164
REMARK   70  A    between atoms: _173  and  _175
REMARK   71  A    between atoms: _175  and  _176
REMARK   72  A    between atoms: _175  and  _178
REMARK   73  A    between atoms: _178  and  _179
REMARK   74  A    between atoms: _184  and  _186
REMARK   75  A    between atoms: _186  and  _187
REMARK   76  A    between atoms: _186  and  _189
REMARK   77  A    between atoms: _189  and  _190
REMARK   78  A    between atoms: _192  and  _194
REMARK   79  A    between atoms: _194  and  _195
REMARK   80  A    between atoms: _194  and  _197
REMARK   81  A    between atoms: _197  and  _198
REMARK   82  A    between atoms: _200  and  _202
REMARK   83  A    between atoms: _202  and  _203
REMARK   84  A    between atoms: _202  and  _205
REMARK   85  A    between atoms: _205  and  _206
REMARK   86  A    between atoms: _206  and  _207
REMARK   87  A    between atoms: _210  and  _212
REMARK   88  A    between atoms: _212  and  _213
REMARK   89  A    between atoms: _212  and  _215
REMARK   90  A    between atoms: _215  and  _216
REMARK   91  A    between atoms: _216  and  _217
REMARK   92  A    between atoms: _217  and  _218
REMARK   93  A    between atoms: _227  and  _229
REMARK   94  A    between atoms: _229  and  _230
REMARK   95  A    between atoms: _229  and  _232
REMARK   96  A    between atoms: _235  and  _237
REMARK   97  A    between atoms: _237  and  _238
REMARK   98  A    between atoms: _237  and  _240
REMARK   99  A    between atoms: _240  and  _241
REMARK  100  A    between atoms: _244  and  _246
REMARK  101  A    between atoms: _246  and  _247
REMARK  102  A    between atoms: _246  and  _249
REMARK  103  A    between atoms: _252  and  _254
REMARK  104  A    between atoms: _254  and  _255
REMARK  105  A    between atoms: _254  and  _257
REMARK  106  A    between atoms: _257  and  _258
REMARK  107  A    between atoms: _261  and  _263
REMARK  108  A    between atoms: _263  and  _264
REMARK  109  A    between atoms: _267  and  _269
REMARK  110  A    between atoms: _269  and  _270
REMARK  111  A    between atoms: _269  and  _272
REMARK  112  A    between atoms: _272  and  _273
REMARK  113  A    between atoms: _278  and  _280
REMARK  114  A    between atoms: _280  and  _281
REMARK  115  A    between atoms: _280  and  _283
REMARK  116  A    between atoms: _283  and  _284
REMARK  117  A    between atoms: _284  and  _285
REMARK  118  A    between atoms: _288  and  _290
REMARK  119  A    between atoms: _290  and  _291
REMARK  120  A    between atoms: _290  and  _293
REMARK  121  A    between atoms: _293  and  _294
REMARK  122  A    between atoms: _299  and  _301
REMARK  123  A    between atoms: _301  and  _302
REMARK  124  A    between atoms: _301  and  _304
REMARK  125  A    between atoms: _304  and  _305
REMARK  126  A    between atoms: _315  and  _317
REMARK  127  A    between atoms: _317  and  _318
REMARK  128  A    between atoms: _317  and  _320
REMARK  129  A    between atoms: _320  and  _321
REMARK  130  A    between atoms: _324  and  _326
REMARK  131  A    between atoms: _326  and  _327
REMARK  132  A    between atoms: _326  and  _329
REMARK  133  A    between atoms: _329  and  _330
REMARK  134  A    between atoms: _335  and  _337
REMARK  135  A    between atoms: _337  and  _338
REMARK  136  A    between atoms: _337  and  _340
REMARK  137  A    between atoms: _340  and  _341
REMARK  138  A    between atoms: _341  and  _342
REMARK  139  A    between atoms: _345  and  _347
REMARK  140  A    between atoms: _347  and  _348
REMARK  141  A    between atoms: _351  and  _353
REMARK  142  A    between atoms: _353  and  _354
REMARK  143  A    between atoms: _353  and  _356
REMARK  144  A    between atoms: _356  and  _357
REMARK  145  A    between atoms: _359  and  _361
REMARK  146  A    between atoms: _361  and  _362
REMARK  147  A    between atoms: _361  and  _364
REMARK  148  A    between atoms: _364  and  _365
REMARK  149  A    between atoms: _365  and  _366
REMARK  150  A    between atoms: _369  and  _371
REMARK  151  A    between atoms: _371  and  _372
REMARK  152  A    between atoms: _371  and  _374
REMARK  153  A    between atoms: _374  and  _375
REMARK  154  A    between atoms: _380  and  _381
REMARK  155  A    between atoms: _383  and  _385
REMARK  156  A    between atoms: _385  and  _386
REMARK  157  A    between atoms: _385  and  _388
REMARK  158  A    between atoms: _388  and  _389
REMARK  159  A    between atoms: _392  and  _394
REMARK  160  A    between atoms: _394  and  _395
REMARK  161  A    between atoms: _394  and  _397
REMARK  162  A    between atoms: _397  and  _398
REMARK  163  A    between atoms: _403  and  _405
REMARK  164  A    between atoms: _405  and  _406
REMARK  165  A    between atoms: _405  and  _408
REMARK  166  A    between atoms: _408  and  _409
REMARK  167  A    between atoms: _412  and  _414
REMARK  168  A    between atoms: _414  and  _415
REMARK  169  A    between atoms: _414  and  _417
REMARK  170  A    between atoms: _417  and  _418
REMARK  171  A    between atoms: _423  and  _424
REMARK  172  A    between atoms: _426  and  _428
REMARK  173  A    between atoms: _428  and  _429
REMARK  174  A    between atoms: _428  and  _431
REMARK  175  A    between atoms: _431  and  _432
REMARK  176  A    between atoms: _432  and  _433
REMARK  177  A    between atoms: _433  and  _434
REMARK  178  A    between atoms: _443  and  _445
REMARK  179  A    between atoms: _445  and  _446
REMARK  180  A    between atoms: _445  and  _448
REMARK  181  A    between atoms: _451  and  _453
REMARK  182  A    between atoms: _453  and  _454
REMARK  183  A    between atoms: _457  and  _459
REMARK  184  A    between atoms: _459  and  _460
REMARK  185  A    between atoms: _459  and  _462
REMARK  186  A    between atoms: _465  and  _467
REMARK  187  A    between atoms: _467  and  _468
REMARK  188  A    between atoms: _467  and  _470
REMARK  189  A    between atoms: _470  and  _471
REMARK  190  A    between atoms: _473  and  _475
REMARK  191  A    between atoms: _475  and  _476
REMARK  192  A    between atoms: _475  and  _478
REMARK  193  A    between atoms: _478  and  _479
REMARK  194  A    between atoms: _479  and  _480
REMARK  195  A    between atoms: _483  and  _485
REMARK  196  A    between atoms: _485  and  _486
REMARK  197  A    between atoms: _485  and  _488
REMARK  198  A    between atoms: _488  and  _489
REMARK  199  A    between atoms: _492  and  _494
REMARK  200  A    between atoms: _494  and  _495
REMARK  201  A    between atoms: _494  and  _497
REMARK  202  A    between atoms: _497  and  _498
REMARK  203  A    between atoms: _504  and  _506
REMARK  204  A    between atoms: _506  and  _507
REMARK  205  A    between atoms: _506  and  _509
REMARK  206  A    between atoms: _509  and  _510
REMARK  207  A    between atoms: _513  and  _515
REMARK  208  A    between atoms: _515  and  _516
REMARK  209  A    between atoms: _519  and  _521
REMARK  210  A    between atoms: _521  and  _522
REMARK  211  A    between atoms: _521  and  _524
REMARK  212  A    between atoms: _524  and  _525
REMARK  213  A    between atoms: _530  and  _531
REMARK  214  A    between atoms: _533  and  _535
REMARK  215  A    between atoms: _535  and  _536
REMARK  216  A    between atoms: _535  and  _538
REMARK  217  A    between atoms: _538  and  _539
REMARK  218  A    between atoms: _541  and  _543
REMARK  219  A    between atoms: _543  and  _544
REMARK  220  A    between atoms: _543  and  _546
REMARK  221  A    between atoms: _546  and  _547
REMARK  222  A    between atoms: _550  and  _552
REMARK  223  A    between atoms: _552  and  _553
REMARK  224  A    between atoms: _552  and  _555
REMARK  225  A    between atoms: _555  and  _556
REMARK  226  A    between atoms: _558  and  _560
REMARK  227  A    between atoms: _560  and  _561
REMARK  228  A    between atoms: _560  and  _563
REMARK  229  A    between atoms: _563  and  _564
REMARK  230  A    between atoms: _567  and  _569
REMARK  231  A    between atoms: _569  and  _570
REMARK  232  A    between atoms: _569  and  _572
REMARK  233  A    between atoms: _572  and  _573
REMARK  234  A    between atoms: _575  and  _577
REMARK  235  A    between atoms: _577  and  _578
REMARK  236  A    between atoms: _577  and  _580
REMARK  237  A    between atoms: _580  and  _581
REMARK  238  A    between atoms: _584  and  _586
REMARK  239  A    between atoms: _586  and  _587
REMARK  240  A    between atoms: _586  and  _589
REMARK  241  A    between atoms: _589  and  _590
REMARK  242  A    between atoms: _595  and  _597
REMARK  243  A    between atoms: _597  and  _598
REMARK  244  A    between atoms: _597  and  _600
REMARK  245  A    between atoms: _600  and  _601
REMARK  246  A    between atoms: _603  and  _605
REMARK  247  A    between atoms: _605  and  _606
REMARK  248  A    between atoms: _605  and  _608
REMARK  249  A    between atoms: _608  and  _609
REMARK  250  A    between atoms: _615  and  _617
REMARK  251  A    between atoms: _617  and  _618
REMARK  252  A    between atoms: _617  and  _620
REMARK  253  A    between atoms: _620  and  _621
REMARK  254  A    between atoms: _623  and  _625
REMARK  255  A    between atoms: _625  and  _626
REMARK  256  A    between atoms: _625  and  _628
REMARK  257  A    between atoms: _628  and  _629
REMARK  258  A    between atoms: _635  and  _637
REMARK  259  A    between atoms: _637  and  _638
REMARK  260  A    between atoms: _637  and  _640
REMARK  261  A    between atoms: _640  and  _641
REMARK  262  A    between atoms: _643  and  _645
REMARK  263  A    between atoms: _645  and  _646
REMARK  264  A    between atoms: _645  and  _648
REMARK  265  A    between atoms: _648  and  _649
REMARK  266  A    between atoms: _654  and  _656
REMARK  267  A    between atoms: _656  and  _657
REMARK  268  A    between atoms: _656  and  _659
REMARK  269  A    between atoms: _659  and  _660
REMARK  270  A    between atoms: _663  and  _665
REMARK  271  A    between atoms: _665  and  _666
REMARK  272  A    between atoms: _665  and  _668
REMARK  273  A    between atoms: _668  and  _669
REMARK  274  A    between atoms: _672  and  _674
REMARK  275  A    between atoms: _674  and  _675
REMARK  276  A    between atoms: _674  and  _677
REMARK  277  A    between atoms: _677  and  _678
REMARK  278  A    between atoms: _678  and  _679
REMARK  279  A    between atoms: _684  and  _686
REMARK  280  A    between atoms: _686  and  _687
REMARK  281  A    between atoms: _690  and  _692
REMARK  282  A    between atoms: _692  and  _693
REMARK  283  A    between atoms: _692  and  _695
REMARK  284  A    between atoms: _698  and  _700
REMARK  285  A    between atoms: _700  and  _701
REMARK  286  A    between atoms: _700  and  _703
REMARK  287  A    between atoms: _703  and  _704
REMARK  288  A    between atoms: _707  and  _709
REMARK  289  A    between atoms: _709  and  _710
REMARK  290  A    between atoms: _709  and  _712
REMARK  291  A    between atoms: _712  and  _713
REMARK  292  A    between atoms: _713  and  _714
REMARK  293  A    between atoms: _714  and  _715
REMARK  294  A    between atoms: _724  and  _726
REMARK  295  A    between atoms: _726  and  _727
REMARK  296  A    between atoms: _726  and  _729
REMARK  297  A    between atoms: _729  and  _730
REMARK  298  A    between atoms: _730  and  _731
REMARK  299  A    between atoms: _731  and  _732
REMARK  300  A    between atoms: _732  and  _733
REMARK                            x       y       z     vdW  Elec       q    Type
REMARK                         _______ _______ _______ _____ _____    ______ ____
ROOT
ATOM      1  O   HOH     1      97.948  17.512  27.041  0.00  0.00    +0.000 OA
ENDROOT
TORSDOF 0
REMARK  Name = ../refined-set-2016/4fys/4fys_pocket.pdb
REMARK  300 active torsions:
REMARK  status: ('A' for Active; 'I' for Inactive)
REMARK    1  A    between atoms: _1  and  _3
REMARK    2  A    between atoms: _3  and  _4
REMARK    3  A    between atoms: _3  and  _6
REMARK    4  A    between atoms: _6  and  _7
REMARK    5  A    between atoms: _7  and  _8
REMARK    6  A    between atoms: _13  and  _15
REMARK    7  A    between atoms: _15  and  _16
REMARK    8  A    between atoms: _15  and  _18
REMARK    9  A    between atoms: _18  and  _19
REMARK   10  A    between atoms: _19  and  _20
REMARK   11  A    between atoms: _22  and  _24
REMARK   12  A    between atoms: _24  and  _25
REMARK   13  A    between atoms: _24  and  _27
REMARK   14  A    between atoms: _27  and  _28
REMARK   15  A    between atoms: _28  and  _29
REMARK   16  A    between atoms: _34  and  _36
REMARK   17  A    between atoms: _36  and  _37
REMARK   18  A    between atoms: _40  and  _42
REMARK   19  A    between atoms: _42  and  _43
REMARK   20  A    between atoms: _42  and  _45
REMARK   21  A    between atoms: _45  and  _46
REMARK   22  A    between atoms: _51  and  _52
REMARK   23  A    between atoms: _54  and  _56
REMARK   24  A    between atoms: _56  and  _57
REMARK   25  A    between atoms: _56  and  _59
REMARK   26  A    between atoms: _59  and  _60
REMARK   27  A    between atoms: _63  and  _65
REMARK   28  A    between atoms: _65  and  _66
REMARK   29  A    between atoms: _65  and  _68
REMARK   30  A    between atoms: _68  and  _69
REMARK   31  A    between atoms: _75  and  _77
REMARK   32  A    between atoms: _77  and  _78
REMARK   33  A    between atoms: _77  and  _80
REMARK   34  A    between atoms: _80  and  _81
REMARK   35  A    between atoms: _86  and  _88
REMARK   36  A    between atoms: _88  and  _89
REMARK   37  A    between atoms: _92  and  _94
REMARK   38  A    between atoms: _94  and  _95
REMARK   39  A    between atoms: _97  and  _99
REMARK   40  A    between atoms: _99  and  _100
REMARK   41  A    between atoms: _103  and  _105
REMARK   42  A    between atoms: _105  and  _106
REMARK   43  A    between atoms: _105  and  _108
REMARK   44  A    between atoms: _108  and  _109
REMARK   45  A    between atoms: _109  and  _110
REMARK   46  A    between atoms: _112  and  _114
REMARK   47  A    between atoms: _114  and  _115
REMARK   48  A    between atoms: _114  and  _117
REMARK   49  A    between atoms: _117  and  _118
REMARK   50  A    between atoms: _118  and  _119
REMARK   51  A    between atoms: _122  and  _124
REMARK   52  A    between atoms: _124  and  _125
REMARK   53  A    between atoms: _124  and  _127
REMARK   54  A    between atoms: _127  and  _128
REMARK   55  A    between atoms: _133  and  _135
REMARK   56  A    between atoms: _135  and  _136
REMARK   57  A    between atoms: _135  and  _138
REMARK   58  A    between atoms: _138  and  _139
REMARK   59  A    between atoms: _142  and  _144
REMARK   60  A    between atoms: _144  and  _145
REMARK   61  A    between atoms: _144  and  _147
REMARK   62  A    between atoms: _147  and  _148
REMARK   63  A    between atoms: _153  and  _154
REMARK   64  A    between atoms: _156  and  _158
REMARK   65  A    between atoms: _158  and  _159
REMARK   66  A    between atoms: _158  and  _161
REMARK   67  A    between atoms: _161  and  _162
REMARK   68  A    between atoms: _162  and  _163
REMARK   69  A    between atoms: _163  and  _164
REMARK   70  A    between atoms: _173  and  _175
REMARK   71  A    between atoms: _175  and  _176
REMARK   72  A    between atoms: _175  and  _178
REMARK   73  A    between atoms: _178  and  _179
REMARK   74  A    between atoms: _184  and  _186
REMARK   75  A    between atoms: _186  and  _187
REMARK   76  A    between atoms: _186  and  _189
REMARK   77  A    between atoms: _189  and  _190
REMARK   78  A    between atoms: _192  and  _194
REMARK   79  A    between atoms: _194  and  _195
REMARK   80  A    between atoms: _194  and  _197
REMARK   81  A    between atoms: _197  and  _198
REMARK   82  A    between atoms: _200  and  _202
REMARK   83  A    between atoms: _202  and  _203
REMARK   84  A    between atoms: _202  and  _205
REMARK   85  A    between atoms: _205  and  _206
REMARK   86  A    between atoms: _206  and  _207
REMARK   87  A    between atoms: _210  and  _212
REMARK   88  A    between atoms: _212  and  _213
REMARK   89  A    between atoms: _212  and  _215
REMARK   90  A    between atoms: _215  and  _216
REMARK   91  A    between atoms: _216  and  _217
REMARK   92  A    between atoms: _217  and  _218
REMARK   93  A    between atoms: _227  and  _229
REMARK   94  A    between atoms: _229  and  _230
REMARK   95  A    between atoms: _229  and  _232
REMARK   96  A    between atoms: _235  and  _237
REMARK   97  A    between atoms: _237  and  _238
REMARK   98  A    between atoms: _237  and  _240
REMARK   99  A    between atoms: _240  and  _241
REMARK  100  A    between atoms: _244  and  _246
REMARK  101  A    between atoms: _246  and  _247
REMARK  102  A    between atoms: _246  and  _249
REMARK  103  A    between atoms: _252  and  _254
REMARK  104  A    between atoms: _254  and  _255
REMARK  105  A    between atoms: _254  and  _257
REMARK  106  A    between atoms: _257  and  _258
REMARK  107  A    between atoms: _261  and  _263
REMARK  108  A    between atoms: _263  and  _264
REMARK  109  A    between atoms: _267  and  _269
REMARK  110  A    between atoms: _269  and  _270
REMARK  111  A    between atoms: _269  and  _272
REMARK  112  A    between atoms: _272  and  _273
REMARK  113  A    between atoms: _278  and  _280
REMARK  114  A    between atoms: _280  and  _281
REMARK  115  A    between atoms: _280  and  _283
REMARK  116  A    between atoms: _283  and  _284
REMARK  117  A    between atoms: _284  and  _285
REMARK  118  A    between atoms: _288  and  _290
REMARK  119  A    between atoms: _290  and  _291
REMARK  120  A    between atoms: _290  and  _293
REMARK  121  A    between atoms: _293  and  _294
REMARK  122  A    between atoms: _299  and  _301
REMARK  123  A    between atoms: _301  and  _302
REMARK  124  A    between atoms: _301  and  _304
REMARK  125  A    between atoms: _304  and  _305
REMARK  126  A    between atoms: _315  and  _317
REMARK  127  A    between atoms: _317  and  _318
REMARK  128  A    between atoms: _317  and  _320
REMARK  129  A    between atoms: _320  and  _321
REMARK  130  A    between atoms: _324  and  _326
REMARK  131  A    between atoms: _326  and  _327
REMARK  132  A    between atoms: _326  and  _329
REMARK  133  A    between atoms: _329  and  _330
REMARK  134  A    between atoms: _335  and  _337
REMARK  135  A    between atoms: _337  and  _338
REMARK  136  A    between atoms: _337  and  _340
REMARK  137  A    between atoms: _340  and  _341
REMARK  138  A    between atoms: _341  and  _342
REMARK  139  A    between atoms: _345  and  _347
REMARK  140  A    between atoms: _347  and  _348
REMARK  141  A    between atoms: _351  and  _353
REMARK  142  A    between atoms: _353  and  _354
REMARK  143  A    between atoms: _353  and  _356
REMARK  144  A    between atoms: _356  and  _357
REMARK  145  A    between atoms: _359  and  _361
REMARK  146  A    between atoms: _361  and  _362
REMARK  147  A    between atoms: _361  and  _364
REMARK  148  A    between atoms: _364  and  _365
REMARK  149  A    between atoms: _365  and  _366
REMARK  150  A    between atoms: _369  and  _371
REMARK  151  A    between atoms: _371  and  _372
REMARK  152  A    between atoms: _371  and  _374
REMARK  153  A    between atoms: _374  and  _375
REMARK  154  A    between atoms: _380  and  _381
REMARK  155  A    between atoms: _383  and  _385
REMARK  156  A    between atoms: _385  and  _386
REMARK  157  A    between atoms: _385  and  _388
REMARK  158  A    between atoms: _388  and  _389
REMARK  159  A    between atoms: _392  and  _394
REMARK  160  A    between atoms: _394  and  _395
REMARK  161  A    between atoms: _394  and  _397
REMARK  162  A    between atoms: _397  and  _398
REMARK  163  A    between atoms: _403  and  _405
REMARK  164  A    between atoms: _405  and  _406
REMARK  165  A    between atoms: _405  and  _408
REMARK  166  A    between atoms: _408  and  _409
REMARK  167  A    between atoms: _412  and  _414
REMARK  168  A    between atoms: _414  and  _415
REMARK  169  A    between atoms: _414  and  _417
REMARK  170  A    between atoms: _417  and  _418
REMARK  171  A    between atoms: _423  and  _424
REMARK  172  A    between atoms: _426  and  _428
REMARK  173  A    between atoms: _428  and  _429
REMARK  174  A    between atoms: _428  and  _431
REMARK  175  A    between atoms: _431  and  _432
REMARK  176  A    between atoms: _432  and  _433
REMARK  177  A    between atoms: _433  and  _434
REMARK  178  A    between atoms: _443  and  _445
REMARK  179  A    between atoms: _445  and  _446
REMARK  180  A    between atoms: _445  and  _448
REMARK  181  A    between atoms: _451  and  _453
REMARK  182  A    between atoms: _453  and  _454
REMARK  183  A    between atoms: _457  and  _459
REMARK  184  A    between atoms: _459  and  _460
REMARK  185  A    between atoms: _459  and  _462
REMARK  186  A    between atoms: _465  and  _467
REMARK  187  A    between atoms: _467  and  _468
REMARK  188  A    between atoms: _467  and  _470
REMARK  189  A    between atoms: _470  and  _471
REMARK  190  A    between atoms: _473  and  _475
REMARK  191  A    between atoms: _475  and  _476
REMARK  192  A    between atoms: _475  and  _478
REMARK  193  A    between atoms: _478  and  _479
REMARK  194  A    between atoms: _479  and  _480
REMARK  195  A    between atoms: _483  and  _485
REMARK  196  A    between atoms: _485  and  _486
REMARK  197  A    between atoms: _485  and  _488
REMARK  198  A    between atoms: _488  and  _489
REMARK  199  A    between atoms: _492  and  _494
REMARK  200  A    between atoms: _494  and  _495
REMARK  201  A    between atoms: _494  and  _497
REMARK  202  A    between atoms: _497  and  _498
REMARK  203  A    between atoms: _504  and  _506
REMARK  204  A    between atoms: _506  and  _507
REMARK  205  A    between atoms: _506  and  _509
REMARK  206  A    between atoms: _509  and  _510
REMARK  207  A    between atoms: _513  and  _515
REMARK  208  A    between atoms: _515  and  _516
REMARK  209  A    between atoms: _519  and  _521
REMARK  210  A    between atoms: _521  and  _522
REMARK  211  A    between atoms: _521  and  _524
REMARK  212  A    between atoms: _524  and  _525
REMARK  213  A    between atoms: _530  and  _531
REMARK  214  A    between atoms: _533  and  _535
REMARK  215  A    between atoms: _535  and  _536
REMARK  216  A    between atoms: _535  and  _538
REMARK  217  A    between atoms: _538  and  _539
REMARK  218  A    between atoms: _541  and  _543
REMARK  219  A    between atoms: _543  and  _544
REMARK  220  A    between atoms: _543  and  _546
REMARK  221  A    between atoms: _546  and  _547
REMARK  222  A    between atoms: _550  and  _552
REMARK  223  A    between atoms: _552  and  _553
REMARK  224  A    between atoms: _552  and  _555
REMARK  225  A    between atoms: _555  and  _556
REMARK  226  A    between atoms: _558  and  _560
REMARK  227  A    between atoms: _560  and  _561
REMARK  228  A    between atoms: _560  and  _563
REMARK  229  A    between atoms: _563  and  _564
REMARK  230  A    between atoms: _567  and  _569
REMARK  231  A    between atoms: _569  and  _570
REMARK  232  A    between atoms: _569  and  _572
REMARK  233  A    between atoms: _572  and  _573
REMARK  234  A    between atoms: _575  and  _577
REMARK  235  A    between atoms: _577  and  _578
REMARK  236  A    between atoms: _577  and  _580
REMARK  237  A    between atoms: _580  and  _581
REMARK  238  A    between atoms: _584  and  _586
REMARK  239  A    between atoms: _586  and  _587
REMARK  240  A    between atoms: _586  and  _589
REMARK  241  A    between atoms: _589  and  _590
REMARK  242  A    between atoms: _595  and  _597
REMARK  243  A    between atoms: _597  and  _598
REMARK  244  A    between atoms: _597  and  _600
REMARK  245  A    between atoms: _600  and  _601
REMARK  246  A    between atoms: _603  and  _605
REMARK  247  A    between atoms: _605  and  _606
REMARK  248  A    between atoms: _605  and  _608
REMARK  249  A    between atoms: _608  and  _609
REMARK  250  A    between atoms: _615  and  _617
REMARK  251  A    between atoms: _617  and  _618
REMARK  252  A    between atoms: _617  and  _620
REMARK  253  A    between atoms: _620  and  _621
REMARK  254  A    between atoms: _623  and  _625
REMARK  255  A    between atoms: _625  and  _626
REMARK  256  A    between atoms: _625  and  _628
REMARK  257  A    between atoms: _628  and  _629
REMARK  258  A    between atoms: _635  and  _637
REMARK  259  A    between atoms: _637  and  _638
REMARK  260  A    between atoms: _637  and  _640
REMARK  261  A    between atoms: _640  and  _641
REMARK  262  A    between atoms: _643  and  _645
REMARK  263  A    between atoms: _645  and  _646
REMARK  264  A    between atoms: _645  and  _648
REMARK  265  A    between atoms: _648  and  _649
REMARK  266  A    between atoms: _654  and  _656
REMARK  267  A    between atoms: _656  and  _657
REMARK  268  A    between atoms: _656  and  _659
REMARK  269  A    between atoms: _659  and  _660
REMARK  270  A    between atoms: _663  and  _665
REMARK  271  A    between atoms: _665  and  _666
REMARK  272  A    between atoms: _665  and  _668
REMARK  273  A    between atoms: _668  and  _669
REMARK  274  A    between atoms: _672  and  _674
REMARK  275  A    between atoms: _674  and  _675
REMARK  276  A    between atoms: _674  and  _677
REMARK  277  A    between atoms: _677  and  _678
REMARK  278  A    between atoms: _678  and  _679
REMARK  279  A    between atoms: _684  and  _686
REMARK  280  A    between atoms: _686  and  _687
REMARK  281  A    between atoms: _690  and  _692
REMARK  282  A    between atoms: _692  and  _693
REMARK  283  A    between atoms: _692  and  _695
REMARK  284  A    between atoms: _698  and  _700
REMARK  285  A    between atoms: _700  and  _701
REMARK  286  A    between atoms: _700  and  _703
REMARK  287  A    between atoms: _703  and  _704
REMARK  288  A    between atoms: _707  and  _709
REMARK  289  A    between atoms: _709  and  _710
REMARK  290  A    between atoms: _709  and  _712
REMARK  291  A    between atoms: _712  and  _713
REMARK  292  A    between atoms: _713  and  _714
REMARK  293  A    between atoms: _714  and  _715
REMARK  294  A    between atoms: _724  and  _726
REMARK  295  A    between atoms: _726  and  _727
REMARK  296  A    between atoms: _726  and  _729
REMARK  297  A    between atoms: _729  and  _730
REMARK  298  A    between atoms: _730  and  _731
REMARK  299  A    between atoms: _731  and  _732
REMARK  300  A    between atoms: _732  and  _733
REMARK                            x       y       z     vdW  Elec       q    Type
REMARK                         _______ _______ _______ _____ _____    ______ ____
ROOT
ATOM      1  O   HOH     1     102.669  23.944  13.727  0.00  0.00    +0.000 OA
ENDROOT
TORSDOF 0
REMARK  Name = ../refined-set-2016/4fys/4fys_pocket.pdb
REMARK  300 active torsions:
REMARK  status: ('A' for Active; 'I' for Inactive)
REMARK    1  A    between atoms: _1  and  _3
REMARK    2  A    between atoms: _3  and  _4
REMARK    3  A    between atoms: _3  and  _6
REMARK    4  A    between atoms: _6  and  _7
REMARK    5  A    between atoms: _7  and  _8
REMARK    6  A    between atoms: _13  and  _15
REMARK    7  A    between atoms: _15  and  _16
REMARK    8  A    between atoms: _15  and  _18
REMARK    9  A    between atoms: _18  and  _19
REMARK   10  A    between atoms: _19  and  _20
REMARK   11  A    between atoms: _22  and  _24
REMARK   12  A    between atoms: _24  and  _25
REMARK   13  A    between atoms: _24  and  _27
REMARK   14  A    between atoms: _27  and  _28
REMARK   15  A    between atoms: _28  and  _29
REMARK   16  A    between atoms: _34  and  _36
REMARK   17  A    between atoms: _36  and  _37
REMARK   18  A    between atoms: _40  and  _42
REMARK   19  A    between atoms: _42  and  _43
REMARK   20  A    between atoms: _42  and  _45
REMARK   21  A    between atoms: _45  and  _46
REMARK   22  A    between atoms: _51  and  _52
REMARK   23  A    between atoms: _54  and  _56
REMARK   24  A    between atoms: _56  and  _57
REMARK   25  A    between atoms: _56  and  _59
REMARK   26  A    between atoms: _59  and  _60
REMARK   27  A    between atoms: _63  and  _65
REMARK   28  A    between atoms: _65  and  _66
REMARK   29  A    between atoms: _65  and  _68
REMARK   30  A    between atoms: _68  and  _69
REMARK   31  A    between atoms: _75  and  _77
REMARK   32  A    between atoms: _77  and  _78
REMARK   33  A    between atoms: _77  and  _80
REMARK   34  A    between atoms: _80  and  _81
REMARK   35  A    between atoms: _86  and  _88
REMARK   36  A    between atoms: _88  and  _89
REMARK   37  A    between atoms: _92  and  _94
REMARK   38  A    between atoms: _94  and  _95
REMARK   39  A    between atoms: _97  and  _99
REMARK   40  A    between atoms: _99  and  _100
REMARK   41  A    between atoms: _103  and  _105
REMARK   42  A    between atoms: _105  and  _106
REMARK   43  A    between atoms: _105  and  _108
REMARK   44  A    between atoms: _108  and  _109
REMARK   45  A    between atoms: _109  and  _110
REMARK   46  A    between atoms: _112  and  _114
REMARK   47  A    between atoms: _114  and  _115
REMARK   48  A    between atoms: _114  and  _117
REMARK   49  A    between atoms: _117  and  _118
REMARK   50  A    between atoms: _118  and  _119
REMARK   51  A    between atoms: _122  and  _124
REMARK   52  A    between atoms: _124  and  _125
REMARK   53  A    between atoms: _124  and  _127
REMARK   54  A    between atoms: _127  and  _128
REMARK   55  A    between atoms: _133  and  _135
REMARK   56  A    between atoms: _135  and  _136
REMARK   57  A    between atoms: _135  and  _138
REMARK   58  A    between atoms: _138  and  _139
REMARK   59  A    between atoms: _142  and  _144
REMARK   60  A    between atoms: _144  and  _145
REMARK   61  A    between atoms: _144  and  _147
REMARK   62  A    between atoms: _147  and  _148
REMARK   63  A    between atoms: _153  and  _154
REMARK   64  A    between atoms: _156  and  _158
REMARK   65  A    between atoms: _158  and  _159
REMARK   66  A    between atoms: _158  and  _161
REMARK   67  A    between atoms: _161  and  _162
REMARK   68  A    between atoms: _162  and  _163
REMARK   69  A    between atoms: _163  and  _164
REMARK   70  A    between atoms: _173  and  _175
REMARK   71  A    between atoms: _175  and  _176
REMARK   72  A    between atoms: _175  and  _178
REMARK   73  A    between atoms: _178  and  _179
REMARK   74  A    between atoms: _184  and  _186
REMARK   75  A    between atoms: _186  and  _187
REMARK   76  A    between atoms: _186  and  _189
REMARK   77  A    between atoms: _189  and  _190
REMARK   78  A    between atoms: _192  and  _194
REMARK   79  A    between atoms: _194  and  _195
REMARK   80  A    between atoms: _194  and  _197
REMARK   81  A    between atoms: _197  and  _198
REMARK   82  A    between atoms: _200  and  _202
REMARK   83  A    between atoms: _202  and  _203
REMARK   84  A    between atoms: _202  and  _205
REMARK   85  A    between atoms: _205  and  _206
REMARK   86  A    between atoms: _206  and  _207
REMARK   87  A    between atoms: _210  and  _212
REMARK   88  A    between atoms: _212  and  _213
REMARK   89  A    between atoms: _212  and  _215
REMARK   90  A    between atoms: _215  and  _216
REMARK   91  A    between atoms: _216  and  _217
REMARK   92  A    between atoms: _217  and  _218
REMARK   93  A    between atoms: _227  and  _229
REMARK   94  A    between atoms: _229  and  _230
REMARK   95  A    between atoms: _229  and  _232
REMARK   96  A    between atoms: _235  and  _237
REMARK   97  A    between atoms: _237  and  _238
REMARK   98  A    between atoms: _237  and  _240
REMARK   99  A    between atoms: _240  and  _241
REMARK  100  A    between atoms: _244  and  _246
REMARK  101  A    between atoms: _246  and  _247
REMARK  102  A    between atoms: _246  and  _249
REMARK  103  A    between atoms: _252  and  _254
REMARK  104  A    between atoms: _254  and  _255
REMARK  105  A    between atoms: _254  and  _257
REMARK  106  A    between atoms: _257  and  _258
REMARK  107  A    between atoms: _261  and  _263
REMARK  108  A    between atoms: _263  and  _264
REMARK  109  A    between atoms: _267  and  _269
REMARK  110  A    between atoms: _269  and  _270
REMARK  111  A    between atoms: _269  and  _272
REMARK  112  A    between atoms: _272  and  _273
REMARK  113  A    between atoms: _278  and  _280
REMARK  114  A    between atoms: _280  and  _281
REMARK  115  A    between atoms: _280  and  _283
REMARK  116  A    between atoms: _283  and  _284
REMARK  117  A    between atoms: _284  and  _285
REMARK  118  A    between atoms: _288  and  _290
REMARK  119  A    between atoms: _290  and  _291
REMARK  120  A    between atoms: _290  and  _293
REMARK  121  A    between atoms: _293  and  _294
REMARK  122  A    between atoms: _299  and  _301
REMARK  123  A    between atoms: _301  and  _302
REMARK  124  A    between atoms: _301  and  _304
REMARK  125  A    between atoms: _304  and  _305
REMARK  126  A    between atoms: _315  and  _317
REMARK  127  A    between atoms: _317  and  _318
REMARK  128  A    between atoms: _317  and  _320
REMARK  129  A    between atoms: _320  and  _321
REMARK  130  A    between atoms: _324  and  _326
REMARK  131  A    between atoms: _326  and  _327
REMARK  132  A    between atoms: _326  and  _329
REMARK  133  A    between atoms: _329  and  _330
REMARK  134  A    between atoms: _335  and  _337
REMARK  135  A    between atoms: _337  and  _338
REMARK  136  A    between atoms: _337  and  _340
REMARK  137  A    between atoms: _340  and  _341
REMARK  138  A    between atoms: _341  and  _342
REMARK  139  A    between atoms: _345  and  _347
REMARK  140  A    between atoms: _347  and  _348
REMARK  141  A    between atoms: _351  and  _353
REMARK  142  A    between atoms: _353  and  _354
REMARK  143  A    between atoms: _353  and  _356
REMARK  144  A    between atoms: _356  and  _357
REMARK  145  A    between atoms: _359  and  _361
REMARK  146  A    between atoms: _361  and  _362
REMARK  147  A    between atoms: _361  and  _364
REMARK  148  A    between atoms: _364  and  _365
REMARK  149  A    between atoms: _365  and  _366
REMARK  150  A    between atoms: _369  and  _371
REMARK  151  A    between atoms: _371  and  _372
REMARK  152  A    between atoms: _371  and  _374
REMARK  153  A    between atoms: _374  and  _375
REMARK  154  A    between atoms: _380  and  _381
REMARK  155  A    between atoms: _383  and  _385
REMARK  156  A    between atoms: _385  and  _386
REMARK  157  A    between atoms: _385  and  _388
REMARK  158  A    between atoms: _388  and  _389
REMARK  159  A    between atoms: _392  and  _394
REMARK  160  A    between atoms: _394  and  _395
REMARK  161  A    between atoms: _394  and  _397
REMARK  162  A    between atoms: _397  and  _398
REMARK  163  A    between atoms: _403  and  _405
REMARK  164  A    between atoms: _405  and  _406
REMARK  165  A    between atoms: _405  and  _408
REMARK  166  A    between atoms: _408  and  _409
REMARK  167  A    between atoms: _412  and  _414
REMARK  168  A    between atoms: _414  and  _415
REMARK  169  A    between atoms: _414  and  _417
REMARK  170  A    between atoms: _417  and  _418
REMARK  171  A    between atoms: _423  and  _424
REMARK  172  A    between atoms: _426  and  _428
REMARK  173  A    between atoms: _428  and  _429
REMARK  174  A    between atoms: _428  and  _431
REMARK  175  A    between atoms: _431  and  _432
REMARK  176  A    between atoms: _432  and  _433
REMARK  177  A    between atoms: _433  and  _434
REMARK  178  A    between atoms: _443  and  _445
REMARK  179  A    between atoms: _445  and  _446
REMARK  180  A    between atoms: _445  and  _448
REMARK  181  A    between atoms: _451  and  _453
REMARK  182  A    between atoms: _453  and  _454
REMARK  183  A    between atoms: _457  and  _459
REMARK  184  A    between atoms: _459  and  _460
REMARK  185  A    between atoms: _459  and  _462
REMARK  186  A    between atoms: _465  and  _467
REMARK  187  A    between atoms: _467  and  _468
REMARK  188  A    between atoms: _467  and  _470
REMARK  189  A    between atoms: _470  and  _471
REMARK  190  A    between atoms: _473  and  _475
REMARK  191  A    between atoms: _475  and  _476
REMARK  192  A    between atoms: _475  and  _478
REMARK  193  A    between atoms: _478  and  _479
REMARK  194  A    between atoms: _479  and  _480
REMARK  195  A    between atoms: _483  and  _485
REMARK  196  A    between atoms: _485  and  _486
REMARK  197  A    between atoms: _485  and  _488
REMARK  198  A    between atoms: _488  and  _489
REMARK  199  A    between atoms: _492  and  _494
REMARK  200  A    between atoms: _494  and  _495
REMARK  201  A    between atoms: _494  and  _497
REMARK  202  A    between atoms: _497  and  _498
REMARK  203  A    between atoms: _504  and  _506
REMARK  204  A    between atoms: _506  and  _507
REMARK  205  A    between atoms: _506  and  _509
REMARK  206  A    between atoms: _509  and  _510
REMARK  207  A    between atoms: _513  and  _515
REMARK  208  A    between atoms: _515  and  _516
REMARK  209  A    between atoms: _519  and  _521
REMARK  210  A    between atoms: _521  and  _522
REMARK  211  A    between atoms: _521  and  _524
REMARK  212  A    between atoms: _524  and  _525
REMARK  213  A    between atoms: _530  and  _531
REMARK  214  A    between atoms: _533  and  _535
REMARK  215  A    between atoms: _535  and  _536
REMARK  216  A    between atoms: _535  and  _538
REMARK  217  A    between atoms: _538  and  _539
REMARK  218  A    between atoms: _541  and  _543
REMARK  219  A    between atoms: _543  and  _544
REMARK  220  A    between atoms: _543  and  _546
REMARK  221  A    between atoms: _546  and  _547
REMARK  222  A    between atoms: _550  and  _552
REMARK  223  A    between atoms: _552  and  _553
REMARK  224  A    between atoms: _552  and  _555
REMARK  225  A    between atoms: _555  and  _556
REMARK  226  A    between atoms: _558  and  _560
REMARK  227  A    between atoms: _560  and  _561
REMARK  228  A    between atoms: _560  and  _563
REMARK  229  A    between atoms: _563  and  _564
REMARK  230  A    between atoms: _567  and  _569
REMARK  231  A    between atoms: _569  and  _570
REMARK  232  A    between atoms: _569  and  _572
REMARK  233  A    between atoms: _572  and  _573
REMARK  234  A    between atoms: _575  and  _577
REMARK  235  A    between atoms: _577  and  _578
REMARK  236  A    between atoms: _577  and  _580
REMARK  237  A    between atoms: _580  and  _581
REMARK  238  A    between atoms: _584  and  _586
REMARK  239  A    between atoms: _586  and  _587
REMARK  240  A    between atoms: _586  and  _589
REMARK  241  A    between atoms: _589  and  _590
REMARK  242  A    between atoms: _595  and  _597
REMARK  243  A    between atoms: _597  and  _598
REMARK  244  A    between atoms: _597  and  _600
REMARK  245  A    between atoms: _600  and  _601
REMARK  246  A    between atoms: _603  and  _605
REMARK  247  A    between atoms: _605  and  _606
REMARK  248  A    between atoms: _605  and  _608
REMARK  249  A    between atoms: _608  and  _609
REMARK  250  A    between atoms: _615  and  _617
REMARK  251  A    between atoms: _617  and  _618
REMARK  252  A    between atoms: _617  and  _620
REMARK  253  A    between atoms: _620  and  _621
REMARK  254  A    between atoms: _623  and  _625
REMARK  255  A    between atoms: _625  and  _626
REMARK  256  A    between atoms: _625  and  _628
REMARK  257  A    between atoms: _628  and  _629
REMARK  258  A    between atoms: _635  and  _637
REMARK  259  A    between atoms: _637  and  _638
REMARK  260  A    between atoms: _637  and  _640
REMARK  261  A    between atoms: _640  and  _641
REMARK  262  A    between atoms: _643  and  _645
REMARK  263  A    between atoms: _645  and  _646
REMARK  264  A    between atoms: _645  and  _648
REMARK  265  A    between atoms: _648  and  _649
REMARK  266  A    between atoms: _654  and  _656
REMARK  267  A    between atoms: _656  and  _657
REMARK  268  A    between atoms: _656  and  _659
REMARK  269  A    between atoms: _659  and  _660
REMARK  270  A    between atoms: _663  and  _665
REMARK  271  A    between atoms: _665  and  _666
REMARK  272  A    between atoms: _665  and  _668
REMARK  273  A    between atoms: _668  and  _669
REMARK  274  A    between atoms: _672  and  _674
REMARK  275  A    between atoms: _674  and  _675
REMARK  276  A    between atoms: _674  and  _677
REMARK  277  A    between atoms: _677  and  _678
REMARK  278  A    between atoms: _678  and  _679
REMARK  279  A    between atoms: _684  and  _686
REMARK  280  A    between atoms: _686  and  _687
REMARK  281  A    between atoms: _690  and  _692
REMARK  282  A    between atoms: _692  and  _693
REMARK  283  A    between atoms: _692  and  _695
REMARK  284  A    between atoms: _698  and  _700
REMARK  285  A    between atoms: _700  and  _701
REMARK  286  A    between atoms: _700  and  _703
REMARK  287  A    between atoms: _703  and  _704
REMARK  288  A    between atoms: _707  and  _709
REMARK  289  A    between atoms: _709  and  _710
REMARK  290  A    between atoms: _709  and  _712
REMARK  291  A    between atoms: _712  and  _713
REMARK  292  A    between atoms: _713  and  _714
REMARK  293  A    between atoms: _714  and  _715
REMARK  294  A    between atoms: _724  and  _726
REMARK  295  A    between atoms: _726  and  _727
REMARK  296  A    between atoms: _726  and  _729
REMARK  297  A    between atoms: _729  and  _730
REMARK  298  A    between atoms: _730  and  _731
REMARK  299  A    between atoms: _731  and  _732
REMARK  300  A    between atoms: _732  and  _733
REMARK                            x       y       z     vdW  Elec       q    Type
REMARK                         _______ _______ _______ _____ _____    ______ ____
ROOT
ATOM      1  O   HOH     1      86.437  11.185  16.720  0.00  0.00    +0.000 OA
ENDROOT
TORSDOF 0
REMARK  Name = ../refined-set-2016/4fys/4fys_pocket.pdb
REMARK  300 active torsions:
REMARK  status: ('A' for Active; 'I' for Inactive)
REMARK    1  A    between atoms: _1  and  _3
REMARK    2  A    between atoms: _3  and  _4
REMARK    3  A    between atoms: _3  and  _6
REMARK    4  A    between atoms: _6  and  _7
REMARK    5  A    between atoms: _7  and  _8
REMARK    6  A    between atoms: _13  and  _15
REMARK    7  A    between atoms: _15  and  _16
REMARK    8  A    between atoms: _15  and  _18
REMARK    9  A    between atoms: _18  and  _19
REMARK   10  A    between atoms: _19  and  _20
REMARK   11  A    between atoms: _22  and  _24
REMARK   12  A    between atoms: _24  and  _25
REMARK   13  A    between atoms: _24  and  _27
REMARK   14  A    between atoms: _27  and  _28
REMARK   15  A    between atoms: _28  and  _29
REMARK   16  A    between atoms: _34  and  _36
REMARK   17  A    between atoms: _36  and  _37
REMARK   18  A    between atoms: _40  and  _42
REMARK   19  A    between atoms: _42  and  _43
REMARK   20  A    between atoms: _42  and  _45
REMARK   21  A    between atoms: _45  and  _46
REMARK   22  A    between atoms: _51  and  _52
REMARK   23  A    between atoms: _54  and  _56
REMARK   24  A    between atoms: _56  and  _57
REMARK   25  A    between atoms: _56  and  _59
REMARK   26  A    between atoms: _59  and  _60
REMARK   27  A    between atoms: _63  and  _65
REMARK   28  A    between atoms: _65  and  _66
REMARK   29  A    between atoms: _65  and  _68
REMARK   30  A    between atoms: _68  and  _69
REMARK   31  A    between atoms: _75  and  _77
REMARK   32  A    between atoms: _77  and  _78
REMARK   33  A    between atoms: _77  and  _80
REMARK   34  A    between atoms: _80  and  _81
REMARK   35  A    between atoms: _86  and  _88
REMARK   36  A    between atoms: _88  and  _89
REMARK   37  A    between atoms: _92  and  _94
REMARK   38  A    between atoms: _94  and  _95
REMARK   39  A    between atoms: _97  and  _99
REMARK   40  A    between atoms: _99  and  _100
REMARK   41  A    between atoms: _103  and  _105
REMARK   42  A    between atoms: _105  and  _106
REMARK   43  A    between atoms: _105  and  _108
REMARK   44  A    between atoms: _108  and  _109
REMARK   45  A    between atoms: _109  and  _110
REMARK   46  A    between atoms: _112  and  _114
REMARK   47  A    between atoms: _114  and  _115
REMARK   48  A    between atoms: _114  and  _117
REMARK   49  A    between atoms: _117  and  _118
REMARK   50  A    between atoms: _118  and  _119
REMARK   51  A    between atoms: _122  and  _124
REMARK   52  A    between atoms: _124  and  _125
REMARK   53  A    between atoms: _124  and  _127
REMARK   54  A    between atoms: _127  and  _128
REMARK   55  A    between atoms: _133  and  _135
REMARK   56  A    between atoms: _135  and  _136
REMARK   57  A    between atoms: _135  and  _138
REMARK   58  A    between atoms: _138  and  _139
REMARK   59  A    between atoms: _142  and  _144
REMARK   60  A    between atoms: _144  and  _145
REMARK   61  A    between atoms: _144  and  _147
REMARK   62  A    between atoms: _147  and  _148
REMARK   63  A    between atoms: _153  and  _154
REMARK   64  A    between atoms: _156  and  _158
REMARK   65  A    between atoms: _158  and  _159
REMARK   66  A    between atoms: _158  and  _161
REMARK   67  A    between atoms: _161  and  _162
REMARK   68  A    between atoms: _162  and  _163
REMARK   69  A    between atoms: _163  and  _164
REMARK   70  A    between atoms: _173  and  _175
REMARK   71  A    between atoms: _175  and  _176
REMARK   72  A    between atoms: _175  and  _178
REMARK   73  A    between atoms: _178  and  _179
REMARK   74  A    between atoms: _184  and  _186
REMARK   75  A    between atoms: _186  and  _187
REMARK   76  A    between atoms: _186  and  _189
REMARK   77  A    between atoms: _189  and  _190
REMARK   78  A    between atoms: _192  and  _194
REMARK   79  A    between atoms: _194  and  _195
REMARK   80  A    between atoms: _194  and  _197
REMARK   81  A    between atoms: _197  and  _198
REMARK   82  A    between atoms: _200  and  _202
REMARK   83  A    between atoms: _202  and  _203
REMARK   84  A    between atoms: _202  and  _205
REMARK   85  A    between atoms: _205  and  _206
REMARK   86  A    between atoms: _206  and  _207
REMARK   87  A    between atoms: _210  and  _212
REMARK   88  A    between atoms: _212  and  _213
REMARK   89  A    between atoms: _212  and  _215
REMARK   90  A    between atoms: _215  and  _216
REMARK   91  A    between atoms: _216  and  _217
REMARK   92  A    between atoms: _217  and  _218
REMARK   93  A    between atoms: _227  and  _229
REMARK   94  A    between atoms: _229  and  _230
REMARK   95  A    between atoms: _229  and  _232
REMARK   96  A    between atoms: _235  and  _237
REMARK   97  A    between atoms: _237  and  _238
REMARK   98  A    between atoms: _237  and  _240
REMARK   99  A    between atoms: _240  and  _241
REMARK  100  A    between atoms: _244  and  _246
REMARK  101  A    between atoms: _246  and  _247
REMARK  102  A    between atoms: _246  and  _249
REMARK  103  A    between atoms: _252  and  _254
REMARK  104  A    between atoms: _254  and  _255
REMARK  105  A    between atoms: _254  and  _257
REMARK  106  A    between atoms: _257  and  _258
REMARK  107  A    between atoms: _261  and  _263
REMARK  108  A    between atoms: _263  and  _264
REMARK  109  A    between atoms: _267  and  _269
REMARK  110  A    between atoms: _269  and  _270
REMARK  111  A    between atoms: _269  and  _272
REMARK  112  A    between atoms: _272  and  _273
REMARK  113  A    between atoms: _278  and  _280
REMARK  114  A    between atoms: _280  and  _281
REMARK  115  A    between atoms: _280  and  _283
REMARK  116  A    between atoms: _283  and  _284
REMARK  117  A    between atoms: _284  and  _285
REMARK  118  A    between atoms: _288  and  _290
REMARK  119  A    between atoms: _290  and  _291
REMARK  120  A    between atoms: _290  and  _293
REMARK  121  A    between atoms: _293  and  _294
REMARK  122  A    between atoms: _299  and  _301
REMARK  123  A    between atoms: _301  and  _302
REMARK  124  A    between atoms: _301  and  _304
REMARK  125  A    between atoms: _304  and  _305
REMARK  126  A    between atoms: _315  and  _317
REMARK  127  A    between atoms: _317  and  _318
REMARK  128  A    between atoms: _317  and  _320
REMARK  129  A    between atoms: _320  and  _321
REMARK  130  A    between atoms: _324  and  _326
REMARK  131  A    between atoms: _326  and  _327
REMARK  132  A    between atoms: _326  and  _329
REMARK  133  A    between atoms: _329  and  _330
REMARK  134  A    between atoms: _335  and  _337
REMARK  135  A    between atoms: _337  and  _338
REMARK  136  A    between atoms: _337  and  _340
REMARK  137  A    between atoms: _340  and  _341
REMARK  138  A    between atoms: _341  and  _342
REMARK  139  A    between atoms: _345  and  _347
REMARK  140  A    between atoms: _347  and  _348
REMARK  141  A    between atoms: _351  and  _353
REMARK  142  A    between atoms: _353  and  _354
REMARK  143  A    between atoms: _353  and  _356
REMARK  144  A    between atoms: _356  and  _357
REMARK  145  A    between atoms: _359  and  _361
REMARK  146  A    between atoms: _361  and  _362
REMARK  147  A    between atoms: _361  and  _364
REMARK  148  A    between atoms: _364  and  _365
REMARK  149  A    between atoms: _365  and  _366
REMARK  150  A    between atoms: _369  and  _371
REMARK  151  A    between atoms: _371  and  _372
REMARK  152  A    between atoms: _371  and  _374
REMARK  153  A    between atoms: _374  and  _375
REMARK  154  A    between atoms: _380  and  _381
REMARK  155  A    between atoms: _383  and  _385
REMARK  156  A    between atoms: _385  and  _386
REMARK  157  A    between atoms: _385  and  _388
REMARK  158  A    between atoms: _388  and  _389
REMARK  159  A    between atoms: _392  and  _394
REMARK  160  A    between atoms: _394  and  _395
REMARK  161  A    between atoms: _394  and  _397
REMARK  162  A    between atoms: _397  and  _398
REMARK  163  A    between atoms: _403  and  _405
REMARK  164  A    between atoms: _405  and  _406
REMARK  165  A    between atoms: _405  and  _408
REMARK  166  A    between atoms: _408  and  _409
REMARK  167  A    between atoms: _412  and  _414
REMARK  168  A    between atoms: _414  and  _415
REMARK  169  A    between atoms: _414  and  _417
REMARK  170  A    between atoms: _417  and  _418
REMARK  171  A    between atoms: _423  and  _424
REMARK  172  A    between atoms: _426  and  _428
REMARK  173  A    between atoms: _428  and  _429
REMARK  174  A    between atoms: _428  and  _431
REMARK  175  A    between atoms: _431  and  _432
REMARK  176  A    between atoms: _432  and  _433
REMARK  177  A    between atoms: _433  and  _434
REMARK  178  A    between atoms: _443  and  _445
REMARK  179  A    between atoms: _445  and  _446
REMARK  180  A    between atoms: _445  and  _448
REMARK  181  A    between atoms: _451  and  _453
REMARK  182  A    between atoms: _453  and  _454
REMARK  183  A    between atoms: _457  and  _459
REMARK  184  A    between atoms: _459  and  _460
REMARK  185  A    between atoms: _459  and  _462
REMARK  186  A    between atoms: _465  and  _467
REMARK  187  A    between atoms: _467  and  _468
REMARK  188  A    between atoms: _467  and  _470
REMARK  189  A    between atoms: _470  and  _471
REMARK  190  A    between atoms: _473  and  _475
REMARK  191  A    between atoms: _475  and  _476
REMARK  192  A    between atoms: _475  and  _478
REMARK  193  A    between atoms: _478  and  _479
REMARK  194  A    between atoms: _479  and  _480
REMARK  195  A    between atoms: _483  and  _485
REMARK  196  A    between atoms: _485  and  _486
REMARK  197  A    between atoms: _485  and  _488
REMARK  198  A    between atoms: _488  and  _489
REMARK  199  A    between atoms: _492  and  _494
REMARK  200  A    between atoms: _494  and  _495
REMARK  201  A    between atoms: _494  and  _497
REMARK  202  A    between atoms: _497  and  _498
REMARK  203  A    between atoms: _504  and  _506
REMARK  204  A    between atoms: _506  and  _507
REMARK  205  A    between atoms: _506  and  _509
REMARK  206  A    between atoms: _509  and  _510
REMARK  207  A    between atoms: _513  and  _515
REMARK  208  A    between atoms: _515  and  _516
REMARK  209  A    between atoms: _519  and  _521
REMARK  210  A    between atoms: _521  and  _522
REMARK  211  A    between atoms: _521  and  _524
REMARK  212  A    between atoms: _524  and  _525
REMARK  213  A    between atoms: _530  and  _531
REMARK  214  A    between atoms: _533  and  _535
REMARK  215  A    between atoms: _535  and  _536
REMARK  216  A    between atoms: _535  and  _538
REMARK  217  A    between atoms: _538  and  _539
REMARK  218  A    between atoms: _541  and  _543
REMARK  219  A    between atoms: _543  and  _544
REMARK  220  A    between atoms: _543  and  _546
REMARK  221  A    between atoms: _546  and  _547
REMARK  222  A    between atoms: _550  and  _552
REMARK  223  A    between atoms: _552  and  _553
REMARK  224  A    between atoms: _552  and  _555
REMARK  225  A    between atoms: _555  and  _556
REMARK  226  A    between atoms: _558  and  _560
REMARK  227  A    between atoms: _560  and  _561
REMARK  228  A    between atoms: _560  and  _563
REMARK  229  A    between atoms: _563  and  _564
REMARK  230  A    between atoms: _567  and  _569
REMARK  231  A    between atoms: _569  and  _570
REMARK  232  A    between atoms: _569  and  _572
REMARK  233  A    between atoms: _572  and  _573
REMARK  234  A    between atoms: _575  and  _577
REMARK  235  A    between atoms: _577  and  _578
REMARK  236  A    between atoms: _577  and  _580
REMARK  237  A    between atoms: _580  and  _581
REMARK  238  A    between atoms: _584  and  _586
REMARK  239  A    between atoms: _586  and  _587
REMARK  240  A    between atoms: _586  and  _589
REMARK  241  A    between atoms: _589  and  _590
REMARK  242  A    between atoms: _595  and  _597
REMARK  243  A    between atoms: _597  and  _598
REMARK  244  A    between atoms: _597  and  _600
REMARK  245  A    between atoms: _600  and  _601
REMARK  246  A    between atoms: _603  and  _605
REMARK  247  A    between atoms: _605  and  _606
REMARK  248  A    between atoms: _605  and  _608
REMARK  249  A    between atoms: _608  and  _609
REMARK  250  A    between atoms: _615  and  _617
REMARK  251  A    between atoms: _617  and  _618
REMARK  252  A    between atoms: _617  and  _620
REMARK  253  A    between atoms: _620  and  _621
REMARK  254  A    between atoms: _623  and  _625
REMARK  255  A    between atoms: _625  and  _626
REMARK  256  A    between atoms: _625  and  _628
REMARK  257  A    between atoms: _628  and  _629
REMARK  258  A    between atoms: _635  and  _637
REMARK  259  A    between atoms: _637  and  _638
REMARK  260  A    between atoms: _637  and  _640
REMARK  261  A    between atoms: _640  and  _641
REMARK  262  A    between atoms: _643  and  _645
REMARK  263  A    between atoms: _645  and  _646
REMARK  264  A    between atoms: _645  and  _648
REMARK  265  A    between atoms: _648  and  _649
REMARK  266  A    between atoms: _654  and  _656
REMARK  267  A    between atoms: _656  and  _657
REMARK  268  A    between atoms: _656  and  _659
REMARK  269  A    between atoms: _659  and  _660
REMARK  270  A    between atoms: _663  and  _665
REMARK  271  A    between atoms: _665  and  _666
REMARK  272  A    between atoms: _665  and  _668
REMARK  273  A    between atoms: _668  and  _669
REMARK  274  A    between atoms: _672  and  _674
REMARK  275  A    between atoms: _674  and  _675
REMARK  276  A    between atoms: _674  and  _677
REMARK  277  A    between atoms: _677  and  _678
REMARK  278  A    between atoms: _678  and  _679
REMARK  279  A    between atoms: _684  and  _686
REMARK  280  A    between atoms: _686  and  _687
REMARK  281  A    between atoms: _690  and  _692
REMARK  282  A    between atoms: _692  and  _693
REMARK  283  A    between atoms: _692  and  _695
REMARK  284  A    between atoms: _698  and  _700
REMARK  285  A    between atoms: _700  and  _701
REMARK  286  A    between atoms: _700  and  _703
REMARK  287  A    between atoms: _703  and  _704
REMARK  288  A    between atoms: _707  and  _709
REMARK  289  A    between atoms: _709  and  _710
REMARK  290  A    between atoms: _709  and  _712
REMARK  291  A    between atoms: _712  and  _713
REMARK  292  A    between atoms: _713  and  _714
REMARK  293  A    between atoms: _714  and  _715
REMARK  294  A    between atoms: _724  and  _726
REMARK  295  A    between atoms: _726  and  _727
REMARK  296  A    between atoms: _726  and  _729
REMARK  297  A    between atoms: _729  and  _730
REMARK  298  A    between atoms: _730  and  _731
REMARK  299  A    between atoms: _731  and  _732
REMARK  300  A    between atoms: _732  and  _733
REMARK                            x       y       z     vdW  Elec       q    Type
REMARK                         _______ _______ _______ _____ _____    ______ ____
ROOT
ATOM      1  O   HOH     1     101.060  16.470  25.933  0.00  0.00    +0.000 OA
ENDROOT
TORSDOF 0
REMARK  Name = ../refined-set-2016/4fys/4fys_pocket.pdb
REMARK  300 active torsions:
REMARK  status: ('A' for Active; 'I' for Inactive)
REMARK    1  A    between atoms: _1  and  _3
REMARK    2  A    between atoms: _3  and  _4
REMARK    3  A    between atoms: _3  and  _6
REMARK    4  A    between atoms: _6  and  _7
REMARK    5  A    between atoms: _7  and  _8
REMARK    6  A    between atoms: _13  and  _15
REMARK    7  A    between atoms: _15  and  _16
REMARK    8  A    between atoms: _15  and  _18
REMARK    9  A    between atoms: _18  and  _19
REMARK   10  A    between atoms: _19  and  _20
REMARK   11  A    between atoms: _22  and  _24
REMARK   12  A    between atoms: _24  and  _25
REMARK   13  A    between atoms: _24  and  _27
REMARK   14  A    between atoms: _27  and  _28
REMARK   15  A    between atoms: _28  and  _29
REMARK   16  A    between atoms: _34  and  _36
REMARK   17  A    between atoms: _36  and  _37
REMARK   18  A    between atoms: _40  and  _42
REMARK   19  A    between atoms: _42  and  _43
REMARK   20  A    between atoms: _42  and  _45
REMARK   21  A    between atoms: _45  and  _46
REMARK   22  A    between atoms: _51  and  _52
REMARK   23  A    between atoms: _54  and  _56
REMARK   24  A    between atoms: _56  and  _57
REMARK   25  A    between atoms: _56  and  _59
REMARK   26  A    between atoms: _59  and  _60
REMARK   27  A    between atoms: _63  and  _65
REMARK   28  A    between atoms: _65  and  _66
REMARK   29  A    between atoms: _65  and  _68
REMARK   30  A    between atoms: _68  and  _69
REMARK   31  A    between atoms: _75  and  _77
REMARK   32  A    between atoms: _77  and  _78
REMARK   33  A    between atoms: _77  and  _80
REMARK   34  A    between atoms: _80  and  _81
REMARK   35  A    between atoms: _86  and  _88
REMARK   36  A    between atoms: _88  and  _89
REMARK   37  A    between atoms: _92  and  _94
REMARK   38  A    between atoms: _94  and  _95
REMARK   39  A    between atoms: _97  and  _99
REMARK   40  A    between atoms: _99  and  _100
REMARK   41  A    between atoms: _103  and  _105
REMARK   42  A    between atoms: _105  and  _106
REMARK   43  A    between atoms: _105  and  _108
REMARK   44  A    between atoms: _108  and  _109
REMARK   45  A    between atoms: _109  and  _110
REMARK   46  A    between atoms: _112  and  _114
REMARK   47  A    between atoms: _114  and  _115
REMARK   48  A    between atoms: _114  and  _117
REMARK   49  A    between atoms: _117  and  _118
REMARK   50  A    between atoms: _118  and  _119
REMARK   51  A    between atoms: _122  and  _124
REMARK   52  A    between atoms: _124  and  _125
REMARK   53  A    between atoms: _124  and  _127
REMARK   54  A    between atoms: _127  and  _128
REMARK   55  A    between atoms: _133  and  _135
REMARK   56  A    between atoms: _135  and  _136
REMARK   57  A    between atoms: _135  and  _138
REMARK   58  A    between atoms: _138  and  _139
REMARK   59  A    between atoms: _142  and  _144
REMARK   60  A    between atoms: _144  and  _145
REMARK   61  A    between atoms: _144  and  _147
REMARK   62  A    between atoms: _147  and  _148
REMARK   63  A    between atoms: _153  and  _154
REMARK   64  A    between atoms: _156  and  _158
REMARK   65  A    between atoms: _158  and  _159
REMARK   66  A    between atoms: _158  and  _161
REMARK   67  A    between atoms: _161  and  _162
REMARK   68  A    between atoms: _162  and  _163
REMARK   69  A    between atoms: _163  and  _164
REMARK   70  A    between atoms: _173  and  _175
REMARK   71  A    between atoms: _175  and  _176
REMARK   72  A    between atoms: _175  and  _178
REMARK   73  A    between atoms: _178  and  _179
REMARK   74  A    between atoms: _184  and  _186
REMARK   75  A    between atoms: _186  and  _187
REMARK   76  A    between atoms: _186  and  _189
REMARK   77  A    between atoms: _189  and  _190
REMARK   78  A    between atoms: _192  and  _194
REMARK   79  A    between atoms: _194  and  _195
REMARK   80  A    between atoms: _194  and  _197
REMARK   81  A    between atoms: _197  and  _198
REMARK   82  A    between atoms: _200  and  _202
REMARK   83  A    between atoms: _202  and  _203
REMARK   84  A    between atoms: _202  and  _205
REMARK   85  A    between atoms: _205  and  _206
REMARK   86  A    between atoms: _206  and  _207
REMARK   87  A    between atoms: _210  and  _212
REMARK   88  A    between atoms: _212  and  _213
REMARK   89  A    between atoms: _212  and  _215
REMARK   90  A    between atoms: _215  and  _216
REMARK   91  A    between atoms: _216  and  _217
REMARK   92  A    between atoms: _217  and  _218
REMARK   93  A    between atoms: _227  and  _229
REMARK   94  A    between atoms: _229  and  _230
REMARK   95  A    between atoms: _229  and  _232
REMARK   96  A    between atoms: _235  and  _237
REMARK   97  A    between atoms: _237  and  _238
REMARK   98  A    between atoms: _237  and  _240
REMARK   99  A    between atoms: _240  and  _241
REMARK  100  A    between atoms: _244  and  _246
REMARK  101  A    between atoms: _246  and  _247
REMARK  102  A    between atoms: _246  and  _249
REMARK  103  A    between atoms: _252  and  _254
REMARK  104  A    between atoms: _254  and  _255
REMARK  105  A    between atoms: _254  and  _257
REMARK  106  A    between atoms: _257  and  _258
REMARK  107  A    between atoms: _261  and  _263
REMARK  108  A    between atoms: _263  and  _264
REMARK  109  A    between atoms: _267  and  _269
REMARK  110  A    between atoms: _269  and  _270
REMARK  111  A    between atoms: _269  and  _272
REMARK  112  A    between atoms: _272  and  _273
REMARK  113  A    between atoms: _278  and  _280
REMARK  114  A    between atoms: _280  and  _281
REMARK  115  A    between atoms: _280  and  _283
REMARK  116  A    between atoms: _283  and  _284
REMARK  117  A    between atoms: _284  and  _285
REMARK  118  A    between atoms: _288  and  _290
REMARK  119  A    between atoms: _290  and  _291
REMARK  120  A    between atoms: _290  and  _293
REMARK  121  A    between atoms: _293  and  _294
REMARK  122  A    between atoms: _299  and  _301
REMARK  123  A    between atoms: _301  and  _302
REMARK  124  A    between atoms: _301  and  _304
REMARK  125  A    between atoms: _304  and  _305
REMARK  126  A    between atoms: _315  and  _317
REMARK  127  A    between atoms: _317  and  _318
REMARK  128  A    between atoms: _317  and  _320
REMARK  129  A    between atoms: _320  and  _321
REMARK  130  A    between atoms: _324  and  _326
REMARK  131  A    between atoms: _326  and  _327
REMARK  132  A    between atoms: _326  and  _329
REMARK  133  A    between atoms: _329  and  _330
REMARK  134  A    between atoms: _335  and  _337
REMARK  135  A    between atoms: _337  and  _338
REMARK  136  A    between atoms: _337  and  _340
REMARK  137  A    between atoms: _340  and  _341
REMARK  138  A    between atoms: _341  and  _342
REMARK  139  A    between atoms: _345  and  _347
REMARK  140  A    between atoms: _347  and  _348
REMARK  141  A    between atoms: _351  and  _353
REMARK  142  A    between atoms: _353  and  _354
REMARK  143  A    between atoms: _353  and  _356
REMARK  144  A    between atoms: _356  and  _357
REMARK  145  A    between atoms: _359  and  _361
REMARK  146  A    between atoms: _361  and  _362
REMARK  147  A    between atoms: _361  and  _364
REMARK  148  A    between atoms: _364  and  _365
REMARK  149  A    between atoms: _365  and  _366
REMARK  150  A    between atoms: _369  and  _371
REMARK  151  A    between atoms: _371  and  _372
REMARK  152  A    between atoms: _371  and  _374
REMARK  153  A    between atoms: _374  and  _375
REMARK  154  A    between atoms: _380  and  _381
REMARK  155  A    between atoms: _383  and  _385
REMARK  156  A    between atoms: _385  and  _386
REMARK  157  A    between atoms: _385  and  _388
REMARK  158  A    between atoms: _388  and  _389
REMARK  159  A    between atoms: _392  and  _394
REMARK  160  A    between atoms: _394  and  _395
REMARK  161  A    between atoms: _394  and  _397
REMARK  162  A    between atoms: _397  and  _398
REMARK  163  A    between atoms: _403  and  _405
REMARK  164  A    between atoms: _405  and  _406
REMARK  165  A    between atoms: _405  and  _408
REMARK  166  A    between atoms: _408  and  _409
REMARK  167  A    between atoms: _412  and  _414
REMARK  168  A    between atoms: _414  and  _415
REMARK  169  A    between atoms: _414  and  _417
REMARK  170  A    between atoms: _417  and  _418
REMARK  171  A    between atoms: _423  and  _424
REMARK  172  A    between atoms: _426  and  _428
REMARK  173  A    between atoms: _428  and  _429
REMARK  174  A    between atoms: _428  and  _431
REMARK  175  A    between atoms: _431  and  _432
REMARK  176  A    between atoms: _432  and  _433
REMARK  177  A    between atoms: _433  and  _434
REMARK  178  A    between atoms: _443  and  _445
REMARK  179  A    between atoms: _445  and  _446
REMARK  180  A    between atoms: _445  and  _448
REMARK  181  A    between atoms: _451  and  _453
REMARK  182  A    between atoms: _453  and  _454
REMARK  183  A    between atoms: _457  and  _459
REMARK  184  A    between atoms: _459  and  _460
REMARK  185  A    between atoms: _459  and  _462
REMARK  186  A    between atoms: _465  and  _467
REMARK  187  A    between atoms: _467  and  _468
REMARK  188  A    between atoms: _467  and  _470
REMARK  189  A    between atoms: _470  and  _471
REMARK  190  A    between atoms: _473  and  _475
REMARK  191  A    between atoms: _475  and  _476
REMARK  192  A    between atoms: _475  and  _478
REMARK  193  A    between atoms: _478  and  _479
REMARK  194  A    between atoms: _479  and  _480
REMARK  195  A    between atoms: _483  and  _485
REMARK  196  A    between atoms: _485  and  _486
REMARK  197  A    between atoms: _485  and  _488
REMARK  198  A    between atoms: _488  and  _489
REMARK  199  A    between atoms: _492  and  _494
REMARK  200  A    between atoms: _494  and  _495
REMARK  201  A    between atoms: _494  and  _497
REMARK  202  A    between atoms: _497  and  _498
REMARK  203  A    between atoms: _504  and  _506
REMARK  204  A    between atoms: _506  and  _507
REMARK  205  A    between atoms: _506  and  _509
REMARK  206  A    between atoms: _509  and  _510
REMARK  207  A    between atoms: _513  and  _515
REMARK  208  A    between atoms: _515  and  _516
REMARK  209  A    between atoms: _519  and  _521
REMARK  210  A    between atoms: _521  and  _522
REMARK  211  A    between atoms: _521  and  _524
REMARK  212  A    between atoms: _524  and  _525
REMARK  213  A    between atoms: _530  and  _531
REMARK  214  A    between atoms: _533  and  _535
REMARK  215  A    between atoms: _535  and  _536
REMARK  216  A    between atoms: _535  and  _538
REMARK  217  A    between atoms: _538  and  _539
REMARK  218  A    between atoms: _541  and  _543
REMARK  219  A    between atoms: _543  and  _544
REMARK  220  A    between atoms: _543  and  _546
REMARK  221  A    between atoms: _546  and  _547
REMARK  222  A    between atoms: _550  and  _552
REMARK  223  A    between atoms: _552  and  _553
REMARK  224  A    between atoms: _552  and  _555
REMARK  225  A    between atoms: _555  and  _556
REMARK  226  A    between atoms: _558  and  _560
REMARK  227  A    between atoms: _560  and  _561
REMARK  228  A    between atoms: _560  and  _563
REMARK  229  A    between atoms: _563  and  _564
REMARK  230  A    between atoms: _567  and  _569
REMARK  231  A    between atoms: _569  and  _570
REMARK  232  A    between atoms: _569  and  _572
REMARK  233  A    between atoms: _572  and  _573
REMARK  234  A    between atoms: _575  and  _577
REMARK  235  A    between atoms: _577  and  _578
REMARK  236  A    between atoms: _577  and  _580
REMARK  237  A    between atoms: _580  and  _581
REMARK  238  A    between atoms: _584  and  _586
REMARK  239  A    between atoms: _586  and  _587
REMARK  240  A    between atoms: _586  and  _589
REMARK  241  A    between atoms: _589  and  _590
REMARK  242  A    between atoms: _595  and  _597
REMARK  243  A    between atoms: _597  and  _598
REMARK  244  A    between atoms: _597  and  _600
REMARK  245  A    between atoms: _600  and  _601
REMARK  246  A    between atoms: _603  and  _605
REMARK  247  A    between atoms: _605  and  _606
REMARK  248  A    between atoms: _605  and  _608
REMARK  249  A    between atoms: _608  and  _609
REMARK  250  A    between atoms: _615  and  _617
REMARK  251  A    between atoms: _617  and  _618
REMARK  252  A    between atoms: _617  and  _620
REMARK  253  A    between atoms: _620  and  _621
REMARK  254  A    between atoms: _623  and  _625
REMARK  255  A    between atoms: _625  and  _626
REMARK  256  A    between atoms: _625  and  _628
REMARK  257  A    between atoms: _628  and  _629
REMARK  258  A    between atoms: _635  and  _637
REMARK  259  A    between atoms: _637  and  _638
REMARK  260  A    between atoms: _637  and  _640
REMARK  261  A    between atoms: _640  and  _641
REMARK  262  A    between atoms: _643  and  _645
REMARK  263  A    between atoms: _645  and  _646
REMARK  264  A    between atoms: _645  and  _648
REMARK  265  A    between atoms: _648  and  _649
REMARK  266  A    between atoms: _654  and  _656
REMARK  267  A    between atoms: _656  and  _657
REMARK  268  A    between atoms: _656  and  _659
REMARK  269  A    between atoms: _659  and  _660
REMARK  270  A    between atoms: _663  and  _665
REMARK  271  A    between atoms: _665  and  _666
REMARK  272  A    between atoms: _665  and  _668
REMARK  273  A    between atoms: _668  and  _669
REMARK  274  A    between atoms: _672  and  _674
REMARK  275  A    between atoms: _674  and  _675
REMARK  276  A    between atoms: _674  and  _677
REMARK  277  A    between atoms: _677  and  _678
REMARK  278  A    between atoms: _678  and  _679
REMARK  279  A    between atoms: _684  and  _686
REMARK  280  A    between atoms: _686  and  _687
REMARK  281  A    between atoms: _690  and  _692
REMARK  282  A    between atoms: _692  and  _693
REMARK  283  A    between atoms: _692  and  _695
REMARK  284  A    between atoms: _698  and  _700
REMARK  285  A    between atoms: _700  and  _701
REMARK  286  A    between atoms: _700  and  _703
REMARK  287  A    between atoms: _703  and  _704
REMARK  288  A    between atoms: _707  and  _709
REMARK  289  A    between atoms: _709  and  _710
REMARK  290  A    between atoms: _709  and  _712
REMARK  291  A    between atoms: _712  and  _713
REMARK  292  A    between atoms: _713  and  _714
REMARK  293  A    between atoms: _714  and  _715
REMARK  294  A    between atoms: _724  and  _726
REMARK  295  A    between atoms: _726  and  _727
REMARK  296  A    between atoms: _726  and  _729
REMARK  297  A    between atoms: _729  and  _730
REMARK  298  A    between atoms: _730  and  _731
REMARK  299  A    between atoms: _731  and  _732
REMARK  300  A    between atoms: _732  and  _733
REMARK                            x       y       z     vdW  Elec       q    Type
REMARK                         _______ _______ _______ _____ _____    ______ ____
ROOT
ATOM      1  O   HOH     1     110.845  11.703  26.659  0.00  0.00    +0.000 OA
ENDROOT
TORSDOF 0
REMARK  Name = ../refined-set-2016/4fys/4fys_pocket.pdb
REMARK  300 active torsions:
REMARK  status: ('A' for Active; 'I' for Inactive)
REMARK    1  A    between atoms: _1  and  _3
REMARK    2  A    between atoms: _3  and  _4
REMARK    3  A    between atoms: _3  and  _6
REMARK    4  A    between atoms: _6  and  _7
REMARK    5  A    between atoms: _7  and  _8
REMARK    6  A    between atoms: _13  and  _15
REMARK    7  A    between atoms: _15  and  _16
REMARK    8  A    between atoms: _15  and  _18
REMARK    9  A    between atoms: _18  and  _19
REMARK   10  A    between atoms: _19  and  _20
REMARK   11  A    between atoms: _22  and  _24
REMARK   12  A    between atoms: _24  and  _25
REMARK   13  A    between atoms: _24  and  _27
REMARK   14  A    between atoms: _27  and  _28
REMARK   15  A    between atoms: _28  and  _29
REMARK   16  A    between atoms: _34  and  _36
REMARK   17  A    between atoms: _36  and  _37
REMARK   18  A    between atoms: _40  and  _42
REMARK   19  A    between atoms: _42  and  _43
REMARK   20  A    between atoms: _42  and  _45
REMARK   21  A    between atoms: _45  and  _46
REMARK   22  A    between atoms: _51  and  _52
REMARK   23  A    between atoms: _54  and  _56
REMARK   24  A    between atoms: _56  and  _57
REMARK   25  A    between atoms: _56  and  _59
REMARK   26  A    between atoms: _59  and  _60
REMARK   27  A    between atoms: _63  and  _65
REMARK   28  A    between atoms: _65  and  _66
REMARK   29  A    between atoms: _65  and  _68
REMARK   30  A    between atoms: _68  and  _69
REMARK   31  A    between atoms: _75  and  _77
REMARK   32  A    between atoms: _77  and  _78
REMARK   33  A    between atoms: _77  and  _80
REMARK   34  A    between atoms: _80  and  _81
REMARK   35  A    between atoms: _86  and  _88
REMARK   36  A    between atoms: _88  and  _89
REMARK   37  A    between atoms: _92  and  _94
REMARK   38  A    between atoms: _94  and  _95
REMARK   39  A    between atoms: _97  and  _99
REMARK   40  A    between atoms: _99  and  _100
REMARK   41  A    between atoms: _103  and  _105
REMARK   42  A    between atoms: _105  and  _106
REMARK   43  A    between atoms: _105  and  _108
REMARK   44  A    between atoms: _108  and  _109
REMARK   45  A    between atoms: _109  and  _110
REMARK   46  A    between atoms: _112  and  _114
REMARK   47  A    between atoms: _114  and  _115
REMARK   48  A    between atoms: _114  and  _117
REMARK   49  A    between atoms: _117  and  _118
REMARK   50  A    between atoms: _118  and  _119
REMARK   51  A    between atoms: _122  and  _124
REMARK   52  A    between atoms: _124  and  _125
REMARK   53  A    between atoms: _124  and  _127
REMARK   54  A    between atoms: _127  and  _128
REMARK   55  A    between atoms: _133  and  _135
REMARK   56  A    between atoms: _135  and  _136
REMARK   57  A    between atoms: _135  and  _138
REMARK   58  A    between atoms: _138  and  _139
REMARK   59  A    between atoms: _142  and  _144
REMARK   60  A    between atoms: _144  and  _145
REMARK   61  A    between atoms: _144  and  _147
REMARK   62  A    between atoms: _147  and  _148
REMARK   63  A    between atoms: _153  and  _154
REMARK   64  A    between atoms: _156  and  _158
REMARK   65  A    between atoms: _158  and  _159
REMARK   66  A    between atoms: _158  and  _161
REMARK   67  A    between atoms: _161  and  _162
REMARK   68  A    between atoms: _162  and  _163
REMARK   69  A    between atoms: _163  and  _164
REMARK   70  A    between atoms: _173  and  _175
REMARK   71  A    between atoms: _175  and  _176
REMARK   72  A    between atoms: _175  and  _178
REMARK   73  A    between atoms: _178  and  _179
REMARK   74  A    between atoms: _184  and  _186
REMARK   75  A    between atoms: _186  and  _187
REMARK   76  A    between atoms: _186  and  _189
REMARK   77  A    between atoms: _189  and  _190
REMARK   78  A    between atoms: _192  and  _194
REMARK   79  A    between atoms: _194  and  _195
REMARK   80  A    between atoms: _194  and  _197
REMARK   81  A    between atoms: _197  and  _198
REMARK   82  A    between atoms: _200  and  _202
REMARK   83  A    between atoms: _202  and  _203
REMARK   84  A    between atoms: _202  and  _205
REMARK   85  A    between atoms: _205  and  _206
REMARK   86  A    between atoms: _206  and  _207
REMARK   87  A    between atoms: _210  and  _212
REMARK   88  A    between atoms: _212  and  _213
REMARK   89  A    between atoms: _212  and  _215
REMARK   90  A    between atoms: _215  and  _216
REMARK   91  A    between atoms: _216  and  _217
REMARK   92  A    between atoms: _217  and  _218
REMARK   93  A    between atoms: _227  and  _229
REMARK   94  A    between atoms: _229  and  _230
REMARK   95  A    between atoms: _229  and  _232
REMARK   96  A    between atoms: _235  and  _237
REMARK   97  A    between atoms: _237  and  _238
REMARK   98  A    between atoms: _237  and  _240
REMARK   99  A    between atoms: _240  and  _241
REMARK  100  A    between atoms: _244  and  _246
REMARK  101  A    between atoms: _246  and  _247
REMARK  102  A    between atoms: _246  and  _249
REMARK  103  A    between atoms: _252  and  _254
REMARK  104  A    between atoms: _254  and  _255
REMARK  105  A    between atoms: _254  and  _257
REMARK  106  A    between atoms: _257  and  _258
REMARK  107  A    between atoms: _261  and  _263
REMARK  108  A    between atoms: _263  and  _264
REMARK  109  A    between atoms: _267  and  _269
REMARK  110  A    between atoms: _269  and  _270
REMARK  111  A    between atoms: _269  and  _272
REMARK  112  A    between atoms: _272  and  _273
REMARK  113  A    between atoms: _278  and  _280
REMARK  114  A    between atoms: _280  and  _281
REMARK  115  A    between atoms: _280  and  _283
REMARK  116  A    between atoms: _283  and  _284
REMARK  117  A    between atoms: _284  and  _285
REMARK  118  A    between atoms: _288  and  _290
REMARK  119  A    between atoms: _290  and  _291
REMARK  120  A    between atoms: _290  and  _293
REMARK  121  A    between atoms: _293  and  _294
REMARK  122  A    between atoms: _299  and  _301
REMARK  123  A    between atoms: _301  and  _302
REMARK  124  A    between atoms: _301  and  _304
REMARK  125  A    between atoms: _304  and  _305
REMARK  126  A    between atoms: _315  and  _317
REMARK  127  A    between atoms: _317  and  _318
REMARK  128  A    between atoms: _317  and  _320
REMARK  129  A    between atoms: _320  and  _321
REMARK  130  A    between atoms: _324  and  _326
REMARK  131  A    between atoms: _326  and  _327
REMARK  132  A    between atoms: _326  and  _329
REMARK  133  A    between atoms: _329  and  _330
REMARK  134  A    between atoms: _335  and  _337
REMARK  135  A    between atoms: _337  and  _338
REMARK  136  A    between atoms: _337  and  _340
REMARK  137  A    between atoms: _340  and  _341
REMARK  138  A    between atoms: _341  and  _342
REMARK  139  A    between atoms: _345  and  _347
REMARK  140  A    between atoms: _347  and  _348
REMARK  141  A    between atoms: _351  and  _353
REMARK  142  A    between atoms: _353  and  _354
REMARK  143  A    between atoms: _353  and  _356
REMARK  144  A    between atoms: _356  and  _357
REMARK  145  A    between atoms: _359  and  _361
REMARK  146  A    between atoms: _361  and  _362
REMARK  147  A    between atoms: _361  and  _364
REMARK  148  A    between atoms: _364  and  _365
REMARK  149  A    between atoms: _365  and  _366
REMARK  150  A    between atoms: _369  and  _371
REMARK  151  A    between atoms: _371  and  _372
REMARK  152  A    between atoms: _371  and  _374
REMARK  153  A    between atoms: _374  and  _375
REMARK  154  A    between atoms: _380  and  _381
REMARK  155  A    between atoms: _383  and  _385
REMARK  156  A    between atoms: _385  and  _386
REMARK  157  A    between atoms: _385  and  _388
REMARK  158  A    between atoms: _388  and  _389
REMARK  159  A    between atoms: _392  and  _394
REMARK  160  A    between atoms: _394  and  _395
REMARK  161  A    between atoms: _394  and  _397
REMARK  162  A    between atoms: _397  and  _398
REMARK  163  A    between atoms: _403  and  _405
REMARK  164  A    between atoms: _405  and  _406
REMARK  165  A    between atoms: _405  and  _408
REMARK  166  A    between atoms: _408  and  _409
REMARK  167  A    between atoms: _412  and  _414
REMARK  168  A    between atoms: _414  and  _415
REMARK  169  A    between atoms: _414  and  _417
REMARK  170  A    between atoms: _417  and  _418
REMARK  171  A    between atoms: _423  and  _424
REMARK  172  A    between atoms: _426  and  _428
REMARK  173  A    between atoms: _428  and  _429
REMARK  174  A    between atoms: _428  and  _431
REMARK  175  A    between atoms: _431  and  _432
REMARK  176  A    between atoms: _432  and  _433
REMARK  177  A    between atoms: _433  and  _434
REMARK  178  A    between atoms: _443  and  _445
REMARK  179  A    between atoms: _445  and  _446
REMARK  180  A    between atoms: _445  and  _448
REMARK  181  A    between atoms: _451  and  _453
REMARK  182  A    between atoms: _453  and  _454
REMARK  183  A    between atoms: _457  and  _459
REMARK  184  A    between atoms: _459  and  _460
REMARK  185  A    between atoms: _459  and  _462
REMARK  186  A    between atoms: _465  and  _467
REMARK  187  A    between atoms: _467  and  _468
REMARK  188  A    between atoms: _467  and  _470
REMARK  189  A    between atoms: _470  and  _471
REMARK  190  A    between atoms: _473  and  _475
REMARK  191  A    between atoms: _475  and  _476
REMARK  192  A    between atoms: _475  and  _478
REMARK  193  A    between atoms: _478  and  _479
REMARK  194  A    between atoms: _479  and  _480
REMARK  195  A    between atoms: _483  and  _485
REMARK  196  A    between atoms: _485  and  _486
REMARK  197  A    between atoms: _485  and  _488
REMARK  198  A    between atoms: _488  and  _489
REMARK  199  A    between atoms: _492  and  _494
REMARK  200  A    between atoms: _494  and  _495
REMARK  201  A    between atoms: _494  and  _497
REMARK  202  A    between atoms: _497  and  _498
REMARK  203  A    between atoms: _504  and  _506
REMARK  204  A    between atoms: _506  and  _507
REMARK  205  A    between atoms: _506  and  _509
REMARK  206  A    between atoms: _509  and  _510
REMARK  207  A    between atoms: _513  and  _515
REMARK  208  A    between atoms: _515  and  _516
REMARK  209  A    between atoms: _519  and  _521
REMARK  210  A    between atoms: _521  and  _522
REMARK  211  A    between atoms: _521  and  _524
REMARK  212  A    between atoms: _524  and  _525
REMARK  213  A    between atoms: _530  and  _531
REMARK  214  A    between atoms: _533  and  _535
REMARK  215  A    between atoms: _535  and  _536
REMARK  216  A    between atoms: _535  and  _538
REMARK  217  A    between atoms: _538  and  _539
REMARK  218  A    between atoms: _541  and  _543
REMARK  219  A    between atoms: _543  and  _544
REMARK  220  A    between atoms: _543  and  _546
REMARK  221  A    between atoms: _546  and  _547
REMARK  222  A    between atoms: _550  and  _552
REMARK  223  A    between atoms: _552  and  _553
REMARK  224  A    between atoms: _552  and  _555
REMARK  225  A    between atoms: _555  and  _556
REMARK  226  A    between atoms: _558  and  _560
REMARK  227  A    between atoms: _560  and  _561
REMARK  228  A    between atoms: _560  and  _563
REMARK  229  A    between atoms: _563  and  _564
REMARK  230  A    between atoms: _567  and  _569
REMARK  231  A    between atoms: _569  and  _570
REMARK  232  A    between atoms: _569  and  _572
REMARK  233  A    between atoms: _572  and  _573
REMARK  234  A    between atoms: _575  and  _577
REMARK  235  A    between atoms: _577  and  _578
REMARK  236  A    between atoms: _577  and  _580
REMARK  237  A    between atoms: _580  and  _581
REMARK  238  A    between atoms: _584  and  _586
REMARK  239  A    between atoms: _586  and  _587
REMARK  240  A    between atoms: _586  and  _589
REMARK  241  A    between atoms: _589  and  _590
REMARK  242  A    between atoms: _595  and  _597
REMARK  243  A    between atoms: _597  and  _598
REMARK  244  A    between atoms: _597  and  _600
REMARK  245  A    between atoms: _600  and  _601
REMARK  246  A    between atoms: _603  and  _605
REMARK  247  A    between atoms: _605  and  _606
REMARK  248  A    between atoms: _605  and  _608
REMARK  249  A    between atoms: _608  and  _609
REMARK  250  A    between atoms: _615  and  _617
REMARK  251  A    between atoms: _617  and  _618
REMARK  252  A    between atoms: _617  and  _620
REMARK  253  A    between atoms: _620  and  _621
REMARK  254  A    between atoms: _623  and  _625
REMARK  255  A    between atoms: _625  and  _626
REMARK  256  A    between atoms: _625  and  _628
REMARK  257  A    between atoms: _628  and  _629
REMARK  258  A    between atoms: _635  and  _637
REMARK  259  A    between atoms: _637  and  _638
REMARK  260  A    between atoms: _637  and  _640
REMARK  261  A    between atoms: _640  and  _641
REMARK  262  A    between atoms: _643  and  _645
REMARK  263  A    between atoms: _645  and  _646
REMARK  264  A    between atoms: _645  and  _648
REMARK  265  A    between atoms: _648  and  _649
REMARK  266  A    between atoms: _654  and  _656
REMARK  267  A    between atoms: _656  and  _657
REMARK  268  A    between atoms: _656  and  _659
REMARK  269  A    between atoms: _659  and  _660
REMARK  270  A    between atoms: _663  and  _665
REMARK  271  A    between atoms: _665  and  _666
REMARK  272  A    between atoms: _665  and  _668
REMARK  273  A    between atoms: _668  and  _669
REMARK  274  A    between atoms: _672  and  _674
REMARK  275  A    between atoms: _674  and  _675
REMARK  276  A    between atoms: _674  and  _677
REMARK  277  A    between atoms: _677  and  _678
REMARK  278  A    between atoms: _678  and  _679
REMARK  279  A    between atoms: _684  and  _686
REMARK  280  A    between atoms: _686  and  _687
REMARK  281  A    between atoms: _690  and  _692
REMARK  282  A    between atoms: _692  and  _693
REMARK  283  A    between atoms: _692  and  _695
REMARK  284  A    between atoms: _698  and  _700
REMARK  285  A    between atoms: _700  and  _701
REMARK  286  A    between atoms: _700  and  _703
REMARK  287  A    between atoms: _703  and  _704
REMARK  288  A    between atoms: _707  and  _709
REMARK  289  A    between atoms: _709  and  _710
REMARK  290  A    between atoms: _709  and  _712
REMARK  291  A    between atoms: _712  and  _713
REMARK  292  A    between atoms: _713  and  _714
REMARK  293  A    between atoms: _714  and  _715
REMARK  294  A    between atoms: _724  and  _726
REMARK  295  A    between atoms: _726  and  _727
REMARK  296  A    between atoms: _726  and  _729
REMARK  297  A    between atoms: _729  and  _730
REMARK  298  A    between atoms: _730  and  _731
REMARK  299  A    between atoms: _731  and  _732
REMARK  300  A    between atoms: _732  and  _733
REMARK                            x       y       z     vdW  Elec       q    Type
REMARK                         _______ _______ _______ _____ _____    ______ ____
ROOT
ATOM      1  O   HOH     1      90.026  18.310  25.530  0.00  0.00    +0.000 OA
ENDROOT
TORSDOF 0
REMARK  Name = ../refined-set-2016/4fys/4fys_pocket.pdb
REMARK  300 active torsions:
REMARK  status: ('A' for Active; 'I' for Inactive)
REMARK    1  A    between atoms: _1  and  _3
REMARK    2  A    between atoms: _3  and  _4
REMARK    3  A    between atoms: _3  and  _6
REMARK    4  A    between atoms: _6  and  _7
REMARK    5  A    between atoms: _7  and  _8
REMARK    6  A    between atoms: _13  and  _15
REMARK    7  A    between atoms: _15  and  _16
REMARK    8  A    between atoms: _15  and  _18
REMARK    9  A    between atoms: _18  and  _19
REMARK   10  A    between atoms: _19  and  _20
REMARK   11  A    between atoms: _22  and  _24
REMARK   12  A    between atoms: _24  and  _25
REMARK   13  A    between atoms: _24  and  _27
REMARK   14  A    between atoms: _27  and  _28
REMARK   15  A    between atoms: _28  and  _29
REMARK   16  A    between atoms: _34  and  _36
REMARK   17  A    between atoms: _36  and  _37
REMARK   18  A    between atoms: _40  and  _42
REMARK   19  A    between atoms: _42  and  _43
REMARK   20  A    between atoms: _42  and  _45
REMARK   21  A    between atoms: _45  and  _46
REMARK   22  A    between atoms: _51  and  _52
REMARK   23  A    between atoms: _54  and  _56
REMARK   24  A    between atoms: _56  and  _57
REMARK   25  A    between atoms: _56  and  _59
REMARK   26  A    between atoms: _59  and  _60
REMARK   27  A    between atoms: _63  and  _65
REMARK   28  A    between atoms: _65  and  _66
REMARK   29  A    between atoms: _65  and  _68
REMARK   30  A    between atoms: _68  and  _69
REMARK   31  A    between atoms: _75  and  _77
REMARK   32  A    between atoms: _77  and  _78
REMARK   33  A    between atoms: _77  and  _80
REMARK   34  A    between atoms: _80  and  _81
REMARK   35  A    between atoms: _86  and  _88
REMARK   36  A    between atoms: _88  and  _89
REMARK   37  A    between atoms: _92  and  _94
REMARK   38  A    between atoms: _94  and  _95
REMARK   39  A    between atoms: _97  and  _99
REMARK   40  A    between atoms: _99  and  _100
REMARK   41  A    between atoms: _103  and  _105
REMARK   42  A    between atoms: _105  and  _106
REMARK   43  A    between atoms: _105  and  _108
REMARK   44  A    between atoms: _108  and  _109
REMARK   45  A    between atoms: _109  and  _110
REMARK   46  A    between atoms: _112  and  _114
REMARK   47  A    between atoms: _114  and  _115
REMARK   48  A    between atoms: _114  and  _117
REMARK   49  A    between atoms: _117  and  _118
REMARK   50  A    between atoms: _118  and  _119
REMARK   51  A    between atoms: _122  and  _124
REMARK   52  A    between atoms: _124  and  _125
REMARK   53  A    between atoms: _124  and  _127
REMARK   54  A    between atoms: _127  and  _128
REMARK   55  A    between atoms: _133  and  _135
REMARK   56  A    between atoms: _135  and  _136
REMARK   57  A    between atoms: _135  and  _138
REMARK   58  A    between atoms: _138  and  _139
REMARK   59  A    between atoms: _142  and  _144
REMARK   60  A    between atoms: _144  and  _145
REMARK   61  A    between atoms: _144  and  _147
REMARK   62  A    between atoms: _147  and  _148
REMARK   63  A    between atoms: _153  and  _154
REMARK   64  A    between atoms: _156  and  _158
REMARK   65  A    between atoms: _158  and  _159
REMARK   66  A    between atoms: _158  and  _161
REMARK   67  A    between atoms: _161  and  _162
REMARK   68  A    between atoms: _162  and  _163
REMARK   69  A    between atoms: _163  and  _164
REMARK   70  A    between atoms: _173  and  _175
REMARK   71  A    between atoms: _175  and  _176
REMARK   72  A    between atoms: _175  and  _178
REMARK   73  A    between atoms: _178  and  _179
REMARK   74  A    between atoms: _184  and  _186
REMARK   75  A    between atoms: _186  and  _187
REMARK   76  A    between atoms: _186  and  _189
REMARK   77  A    between atoms: _189  and  _190
REMARK   78  A    between atoms: _192  and  _194
REMARK   79  A    between atoms: _194  and  _195
REMARK   80  A    between atoms: _194  and  _197
REMARK   81  A    between atoms: _197  and  _198
REMARK   82  A    between atoms: _200  and  _202
REMARK   83  A    between atoms: _202  and  _203
REMARK   84  A    between atoms: _202  and  _205
REMARK   85  A    between atoms: _205  and  _206
REMARK   86  A    between atoms: _206  and  _207
REMARK   87  A    between atoms: _210  and  _212
REMARK   88  A    between atoms: _212  and  _213
REMARK   89  A    between atoms: _212  and  _215
REMARK   90  A    between atoms: _215  and  _216
REMARK   91  A    between atoms: _216  and  _217
REMARK   92  A    between atoms: _217  and  _218
REMARK   93  A    between atoms: _227  and  _229
REMARK   94  A    between atoms: _229  and  _230
REMARK   95  A    between atoms: _229  and  _232
REMARK   96  A    between atoms: _235  and  _237
REMARK   97  A    between atoms: _237  and  _238
REMARK   98  A    between atoms: _237  and  _240
REMARK   99  A    between atoms: _240  and  _241
REMARK  100  A    between atoms: _244  and  _246
REMARK  101  A    between atoms: _246  and  _247
REMARK  102  A    between atoms: _246  and  _249
REMARK  103  A    between atoms: _252  and  _254
REMARK  104  A    between atoms: _254  and  _255
REMARK  105  A    between atoms: _254  and  _257
REMARK  106  A    between atoms: _257  and  _258
REMARK  107  A    between atoms: _261  and  _263
REMARK  108  A    between atoms: _263  and  _264
REMARK  109  A    between atoms: _267  and  _269
REMARK  110  A    between atoms: _269  and  _270
REMARK  111  A    between atoms: _269  and  _272
REMARK  112  A    between atoms: _272  and  _273
REMARK  113  A    between atoms: _278  and  _280
REMARK  114  A    between atoms: _280  and  _281
REMARK  115  A    between atoms: _280  and  _283
REMARK  116  A    between atoms: _283  and  _284
REMARK  117  A    between atoms: _284  and  _285
REMARK  118  A    between atoms: _288  and  _290
REMARK  119  A    between atoms: _290  and  _291
REMARK  120  A    between atoms: _290  and  _293
REMARK  121  A    between atoms: _293  and  _294
REMARK  122  A    between atoms: _299  and  _301
REMARK  123  A    between atoms: _301  and  _302
REMARK  124  A    between atoms: _301  and  _304
REMARK  125  A    between atoms: _304  and  _305
REMARK  126  A    between atoms: _315  and  _317
REMARK  127  A    between atoms: _317  and  _318
REMARK  128  A    between atoms: _317  and  _320
REMARK  129  A    between atoms: _320  and  _321
REMARK  130  A    between atoms: _324  and  _326
REMARK  131  A    between atoms: _326  and  _327
REMARK  132  A    between atoms: _326  and  _329
REMARK  133  A    between atoms: _329  and  _330
REMARK  134  A    between atoms: _335  and  _337
REMARK  135  A    between atoms: _337  and  _338
REMARK  136  A    between atoms: _337  and  _340
REMARK  137  A    between atoms: _340  and  _341
REMARK  138  A    between atoms: _341  and  _342
REMARK  139  A    between atoms: _345  and  _347
REMARK  140  A    between atoms: _347  and  _348
REMARK  141  A    between atoms: _351  and  _353
REMARK  142  A    between atoms: _353  and  _354
REMARK  143  A    between atoms: _353  and  _356
REMARK  144  A    between atoms: _356  and  _357
REMARK  145  A    between atoms: _359  and  _361
REMARK  146  A    between atoms: _361  and  _362
REMARK  147  A    between atoms: _361  and  _364
REMARK  148  A    between atoms: _364  and  _365
REMARK  149  A    between atoms: _365  and  _366
REMARK  150  A    between atoms: _369  and  _371
REMARK  151  A    between atoms: _371  and  _372
REMARK  152  A    between atoms: _371  and  _374
REMARK  153  A    between atoms: _374  and  _375
REMARK  154  A    between atoms: _380  and  _381
REMARK  155  A    between atoms: _383  and  _385
REMARK  156  A    between atoms: _385  and  _386
REMARK  157  A    between atoms: _385  and  _388
REMARK  158  A    between atoms: _388  and  _389
REMARK  159  A    between atoms: _392  and  _394
REMARK  160  A    between atoms: _394  and  _395
REMARK  161  A    between atoms: _394  and  _397
REMARK  162  A    between atoms: _397  and  _398
REMARK  163  A    between atoms: _403  and  _405
REMARK  164  A    between atoms: _405  and  _406
REMARK  165  A    between atoms: _405  and  _408
REMARK  166  A    between atoms: _408  and  _409
REMARK  167  A    between atoms: _412  and  _414
REMARK  168  A    between atoms: _414  and  _415
REMARK  169  A    between atoms: _414  and  _417
REMARK  170  A    between atoms: _417  and  _418
REMARK  171  A    between atoms: _423  and  _424
REMARK  172  A    between atoms: _426  and  _428
REMARK  173  A    between atoms: _428  and  _429
REMARK  174  A    between atoms: _428  and  _431
REMARK  175  A    between atoms: _431  and  _432
REMARK  176  A    between atoms: _432  and  _433
REMARK  177  A    between atoms: _433  and  _434
REMARK  178  A    between atoms: _443  and  _445
REMARK  179  A    between atoms: _445  and  _446
REMARK  180  A    between atoms: _445  and  _448
REMARK  181  A    between atoms: _451  and  _453
REMARK  182  A    between atoms: _453  and  _454
REMARK  183  A    between atoms: _457  and  _459
REMARK  184  A    between atoms: _459  and  _460
REMARK  185  A    between atoms: _459  and  _462
REMARK  186  A    between atoms: _465  and  _467
REMARK  187  A    between atoms: _467  and  _468
REMARK  188  A    between atoms: _467  and  _470
REMARK  189  A    between atoms: _470  and  _471
REMARK  190  A    between atoms: _473  and  _475
REMARK  191  A    between atoms: _475  and  _476
REMARK  192  A    between atoms: _475  and  _478
REMARK  193  A    between atoms: _478  and  _479
REMARK  194  A    between atoms: _479  and  _480
REMARK  195  A    between atoms: _483  and  _485
REMARK  196  A    between atoms: _485  and  _486
REMARK  197  A    between atoms: _485  and  _488
REMARK  198  A    between atoms: _488  and  _489
REMARK  199  A    between atoms: _492  and  _494
REMARK  200  A    between atoms: _494  and  _495
REMARK  201  A    between atoms: _494  and  _497
REMARK  202  A    between atoms: _497  and  _498
REMARK  203  A    between atoms: _504  and  _506
REMARK  204  A    between atoms: _506  and  _507
REMARK  205  A    between atoms: _506  and  _509
REMARK  206  A    between atoms: _509  and  _510
REMARK  207  A    between atoms: _513  and  _515
REMARK  208  A    between atoms: _515  and  _516
REMARK  209  A    between atoms: _519  and  _521
REMARK  210  A    between atoms: _521  and  _522
REMARK  211  A    between atoms: _521  and  _524
REMARK  212  A    between atoms: _524  and  _525
REMARK  213  A    between atoms: _530  and  _531
REMARK  214  A    between atoms: _533  and  _535
REMARK  215  A    between atoms: _535  and  _536
REMARK  216  A    between atoms: _535  and  _538
REMARK  217  A    between atoms: _538  and  _539
REMARK  218  A    between atoms: _541  and  _543
REMARK  219  A    between atoms: _543  and  _544
REMARK  220  A    between atoms: _543  and  _546
REMARK  221  A    between atoms: _546  and  _547
REMARK  222  A    between atoms: _550  and  _552
REMARK  223  A    between atoms: _552  and  _553
REMARK  224  A    between atoms: _552  and  _555
REMARK  225  A    between atoms: _555  and  _556
REMARK  226  A    between atoms: _558  and  _560
REMARK  227  A    between atoms: _560  and  _561
REMARK  228  A    between atoms: _560  and  _563
REMARK  229  A    between atoms: _563  and  _564
REMARK  230  A    between atoms: _567  and  _569
REMARK  231  A    between atoms: _569  and  _570
REMARK  232  A    between atoms: _569  and  _572
REMARK  233  A    between atoms: _572  and  _573
REMARK  234  A    between atoms: _575  and  _577
REMARK  235  A    between atoms: _577  and  _578
REMARK  236  A    between atoms: _577  and  _580
REMARK  237  A    between atoms: _580  and  _581
REMARK  238  A    between atoms: _584  and  _586
REMARK  239  A    between atoms: _586  and  _587
REMARK  240  A    between atoms: _586  and  _589
REMARK  241  A    between atoms: _589  and  _590
REMARK  242  A    between atoms: _595  and  _597
REMARK  243  A    between atoms: _597  and  _598
REMARK  244  A    between atoms: _597  and  _600
REMARK  245  A    between atoms: _600  and  _601
REMARK  246  A    between atoms: _603  and  _605
REMARK  247  A    between atoms: _605  and  _606
REMARK  248  A    between atoms: _605  and  _608
REMARK  249  A    between atoms: _608  and  _609
REMARK  250  A    between atoms: _615  and  _617
REMARK  251  A    between atoms: _617  and  _618
REMARK  252  A    between atoms: _617  and  _620
REMARK  253  A    between atoms: _620  and  _621
REMARK  254  A    between atoms: _623  and  _625
REMARK  255  A    between atoms: _625  and  _626
REMARK  256  A    between atoms: _625  and  _628
REMARK  257  A    between atoms: _628  and  _629
REMARK  258  A    between atoms: _635  and  _637
REMARK  259  A    between atoms: _637  and  _638
REMARK  260  A    between atoms: _637  and  _640
REMARK  261  A    between atoms: _640  and  _641
REMARK  262  A    between atoms: _643  and  _645
REMARK  263  A    between atoms: _645  and  _646
REMARK  264  A    between atoms: _645  and  _648
REMARK  265  A    between atoms: _648  and  _649
REMARK  266  A    between atoms: _654  and  _656
REMARK  267  A    between atoms: _656  and  _657
REMARK  268  A    between atoms: _656  and  _659
REMARK  269  A    between atoms: _659  and  _660
REMARK  270  A    between atoms: _663  and  _665
REMARK  271  A    between atoms: _665  and  _666
REMARK  272  A    between atoms: _665  and  _668
REMARK  273  A    between atoms: _668  and  _669
REMARK  274  A    between atoms: _672  and  _674
REMARK  275  A    between atoms: _674  and  _675
REMARK  276  A    between atoms: _674  and  _677
REMARK  277  A    between atoms: _677  and  _678
REMARK  278  A    between atoms: _678  and  _679
REMARK  279  A    between atoms: _684  and  _686
REMARK  280  A    between atoms: _686  and  _687
REMARK  281  A    between atoms: _690  and  _692
REMARK  282  A    between atoms: _692  and  _693
REMARK  283  A    between atoms: _692  and  _695
REMARK  284  A    between atoms: _698  and  _700
REMARK  285  A    between atoms: _700  and  _701
REMARK  286  A    between atoms: _700  and  _703
REMARK  287  A    between atoms: _703  and  _704
REMARK  288  A    between atoms: _707  and  _709
REMARK  289  A    between atoms: _709  and  _710
REMARK  290  A    between atoms: _709  and  _712
REMARK  291  A    between atoms: _712  and  _713
REMARK  292  A    between atoms: _713  and  _714
REMARK  293  A    between atoms: _714  and  _715
REMARK  294  A    between atoms: _724  and  _726
REMARK  295  A    between atoms: _726  and  _727
REMARK  296  A    between atoms: _726  and  _729
REMARK  297  A    between atoms: _729  and  _730
REMARK  298  A    between atoms: _730  and  _731
REMARK  299  A    between atoms: _731  and  _732
REMARK  300  A    between atoms: _732  and  _733
REMARK                            x       y       z     vdW  Elec       q    Type
REMARK                         _______ _______ _______ _____ _____    ______ ____
ROOT
ATOM      1  O   HOH     1     103.495  12.173  12.434  0.00  0.00    +0.000 OA
ENDROOT
TORSDOF 0
REMARK  Name = ../refined-set-2016/4fys/4fys_pocket.pdb
REMARK  300 active torsions:
REMARK  status: ('A' for Active; 'I' for Inactive)
REMARK    1  A    between atoms: _1  and  _3
REMARK    2  A    between atoms: _3  and  _4
REMARK    3  A    between atoms: _3  and  _6
REMARK    4  A    between atoms: _6  and  _7
REMARK    5  A    between atoms: _7  and  _8
REMARK    6  A    between atoms: _13  and  _15
REMARK    7  A    between atoms: _15  and  _16
REMARK    8  A    between atoms: _15  and  _18
REMARK    9  A    between atoms: _18  and  _19
REMARK   10  A    between atoms: _19  and  _20
REMARK   11  A    between atoms: _22  and  _24
REMARK   12  A    between atoms: _24  and  _25
REMARK   13  A    between atoms: _24  and  _27
REMARK   14  A    between atoms: _27  and  _28
REMARK   15  A    between atoms: _28  and  _29
REMARK   16  A    between atoms: _34  and  _36
REMARK   17  A    between atoms: _36  and  _37
REMARK   18  A    between atoms: _40  and  _42
REMARK   19  A    between atoms: _42  and  _43
REMARK   20  A    between atoms: _42  and  _45
REMARK   21  A    between atoms: _45  and  _46
REMARK   22  A    between atoms: _51  and  _52
REMARK   23  A    between atoms: _54  and  _56
REMARK   24  A    between atoms: _56  and  _57
REMARK   25  A    between atoms: _56  and  _59
REMARK   26  A    between atoms: _59  and  _60
REMARK   27  A    between atoms: _63  and  _65
REMARK   28  A    between atoms: _65  and  _66
REMARK   29  A    between atoms: _65  and  _68
REMARK   30  A    between atoms: _68  and  _69
REMARK   31  A    between atoms: _75  and  _77
REMARK   32  A    between atoms: _77  and  _78
REMARK   33  A    between atoms: _77  and  _80
REMARK   34  A    between atoms: _80  and  _81
REMARK   35  A    between atoms: _86  and  _88
REMARK   36  A    between atoms: _88  and  _89
REMARK   37  A    between atoms: _92  and  _94
REMARK   38  A    between atoms: _94  and  _95
REMARK   39  A    between atoms: _97  and  _99
REMARK   40  A    between atoms: _99  and  _100
REMARK   41  A    between atoms: _103  and  _105
REMARK   42  A    between atoms: _105  and  _106
REMARK   43  A    between atoms: _105  and  _108
REMARK   44  A    between atoms: _108  and  _109
REMARK   45  A    between atoms: _109  and  _110
REMARK   46  A    between atoms: _112  and  _114
REMARK   47  A    between atoms: _114  and  _115
REMARK   48  A    between atoms: _114  and  _117
REMARK   49  A    between atoms: _117  and  _118
REMARK   50  A    between atoms: _118  and  _119
REMARK   51  A    between atoms: _122  and  _124
REMARK   52  A    between atoms: _124  and  _125
REMARK   53  A    between atoms: _124  and  _127
REMARK   54  A    between atoms: _127  and  _128
REMARK   55  A    between atoms: _133  and  _135
REMARK   56  A    between atoms: _135  and  _136
REMARK   57  A    between atoms: _135  and  _138
REMARK   58  A    between atoms: _138  and  _139
REMARK   59  A    between atoms: _142  and  _144
REMARK   60  A    between atoms: _144  and  _145
REMARK   61  A    between atoms: _144  and  _147
REMARK   62  A    between atoms: _147  and  _148
REMARK   63  A    between atoms: _153  and  _154
REMARK   64  A    between atoms: _156  and  _158
REMARK   65  A    between atoms: _158  and  _159
REMARK   66  A    between atoms: _158  and  _161
REMARK   67  A    between atoms: _161  and  _162
REMARK   68  A    between atoms: _162  and  _163
REMARK   69  A    between atoms: _163  and  _164
REMARK   70  A    between atoms: _173  and  _175
REMARK   71  A    between atoms: _175  and  _176
REMARK   72  A    between atoms: _175  and  _178
REMARK   73  A    between atoms: _178  and  _179
REMARK   74  A    between atoms: _184  and  _186
REMARK   75  A    between atoms: _186  and  _187
REMARK   76  A    between atoms: _186  and  _189
REMARK   77  A    between atoms: _189  and  _190
REMARK   78  A    between atoms: _192  and  _194
REMARK   79  A    between atoms: _194  and  _195
REMARK   80  A    between atoms: _194  and  _197
REMARK   81  A    between atoms: _197  and  _198
REMARK   82  A    between atoms: _200  and  _202
REMARK   83  A    between atoms: _202  and  _203
REMARK   84  A    between atoms: _202  and  _205
REMARK   85  A    between atoms: _205  and  _206
REMARK   86  A    between atoms: _206  and  _207
REMARK   87  A    between atoms: _210  and  _212
REMARK   88  A    between atoms: _212  and  _213
REMARK   89  A    between atoms: _212  and  _215
REMARK   90  A    between atoms: _215  and  _216
REMARK   91  A    between atoms: _216  and  _217
REMARK   92  A    between atoms: _217  and  _218
REMARK   93  A    between atoms: _227  and  _229
REMARK   94  A    between atoms: _229  and  _230
REMARK   95  A    between atoms: _229  and  _232
REMARK   96  A    between atoms: _235  and  _237
REMARK   97  A    between atoms: _237  and  _238
REMARK   98  A    between atoms: _237  and  _240
REMARK   99  A    between atoms: _240  and  _241
REMARK  100  A    between atoms: _244  and  _246
REMARK  101  A    between atoms: _246  and  _247
REMARK  102  A    between atoms: _246  and  _249
REMARK  103  A    between atoms: _252  and  _254
REMARK  104  A    between atoms: _254  and  _255
REMARK  105  A    between atoms: _254  and  _257
REMARK  106  A    between atoms: _257  and  _258
REMARK  107  A    between atoms: _261  and  _263
REMARK  108  A    between atoms: _263  and  _264
REMARK  109  A    between atoms: _267  and  _269
REMARK  110  A    between atoms: _269  and  _270
REMARK  111  A    between atoms: _269  and  _272
REMARK  112  A    between atoms: _272  and  _273
REMARK  113  A    between atoms: _278  and  _280
REMARK  114  A    between atoms: _280  and  _281
REMARK  115  A    between atoms: _280  and  _283
REMARK  116  A    between atoms: _283  and  _284
REMARK  117  A    between atoms: _284  and  _285
REMARK  118  A    between atoms: _288  and  _290
REMARK  119  A    between atoms: _290  and  _291
REMARK  120  A    between atoms: _290  and  _293
REMARK  121  A    between atoms: _293  and  _294
REMARK  122  A    between atoms: _299  and  _301
REMARK  123  A    between atoms: _301  and  _302
REMARK  124  A    between atoms: _301  and  _304
REMARK  125  A    between atoms: _304  and  _305
REMARK  126  A    between atoms: _315  and  _317
REMARK  127  A    between atoms: _317  and  _318
REMARK  128  A    between atoms: _317  and  _320
REMARK  129  A    between atoms: _320  and  _321
REMARK  130  A    between atoms: _324  and  _326
REMARK  131  A    between atoms: _326  and  _327
REMARK  132  A    between atoms: _326  and  _329
REMARK  133  A    between atoms: _329  and  _330
REMARK  134  A    between atoms: _335  and  _337
REMARK  135  A    between atoms: _337  and  _338
REMARK  136  A    between atoms: _337  and  _340
REMARK  137  A    between atoms: _340  and  _341
REMARK  138  A    between atoms: _341  and  _342
REMARK  139  A    between atoms: _345  and  _347
REMARK  140  A    between atoms: _347  and  _348
REMARK  141  A    between atoms: _351  and  _353
REMARK  142  A    between atoms: _353  and  _354
REMARK  143  A    between atoms: _353  and  _356
REMARK  144  A    between atoms: _356  and  _357
REMARK  145  A    between atoms: _359  and  _361
REMARK  146  A    between atoms: _361  and  _362
REMARK  147  A    between atoms: _361  and  _364
REMARK  148  A    between atoms: _364  and  _365
REMARK  149  A    between atoms: _365  and  _366
REMARK  150  A    between atoms: _369  and  _371
REMARK  151  A    between atoms: _371  and  _372
REMARK  152  A    between atoms: _371  and  _374
REMARK  153  A    between atoms: _374  and  _375
REMARK  154  A    between atoms: _380  and  _381
REMARK  155  A    between atoms: _383  and  _385
REMARK  156  A    between atoms: _385  and  _386
REMARK  157  A    between atoms: _385  and  _388
REMARK  158  A    between atoms: _388  and  _389
REMARK  159  A    between atoms: _392  and  _394
REMARK  160  A    between atoms: _394  and  _395
REMARK  161  A    between atoms: _394  and  _397
REMARK  162  A    between atoms: _397  and  _398
REMARK  163  A    between atoms: _403  and  _405
REMARK  164  A    between atoms: _405  and  _406
REMARK  165  A    between atoms: _405  and  _408
REMARK  166  A    between atoms: _408  and  _409
REMARK  167  A    between atoms: _412  and  _414
REMARK  168  A    between atoms: _414  and  _415
REMARK  169  A    between atoms: _414  and  _417
REMARK  170  A    between atoms: _417  and  _418
REMARK  171  A    between atoms: _423  and  _424
REMARK  172  A    between atoms: _426  and  _428
REMARK  173  A    between atoms: _428  and  _429
REMARK  174  A    between atoms: _428  and  _431
REMARK  175  A    between atoms: _431  and  _432
REMARK  176  A    between atoms: _432  and  _433
REMARK  177  A    between atoms: _433  and  _434
REMARK  178  A    between atoms: _443  and  _445
REMARK  179  A    between atoms: _445  and  _446
REMARK  180  A    between atoms: _445  and  _448
REMARK  181  A    between atoms: _451  and  _453
REMARK  182  A    between atoms: _453  and  _454
REMARK  183  A    between atoms: _457  and  _459
REMARK  184  A    between atoms: _459  and  _460
REMARK  185  A    between atoms: _459  and  _462
REMARK  186  A    between atoms: _465  and  _467
REMARK  187  A    between atoms: _467  and  _468
REMARK  188  A    between atoms: _467  and  _470
REMARK  189  A    between atoms: _470  and  _471
REMARK  190  A    between atoms: _473  and  _475
REMARK  191  A    between atoms: _475  and  _476
REMARK  192  A    between atoms: _475  and  _478
REMARK  193  A    between atoms: _478  and  _479
REMARK  194  A    between atoms: _479  and  _480
REMARK  195  A    between atoms: _483  and  _485
REMARK  196  A    between atoms: _485  and  _486
REMARK  197  A    between atoms: _485  and  _488
REMARK  198  A    between atoms: _488  and  _489
REMARK  199  A    between atoms: _492  and  _494
REMARK  200  A    between atoms: _494  and  _495
REMARK  201  A    between atoms: _494  and  _497
REMARK  202  A    between atoms: _497  and  _498
REMARK  203  A    between atoms: _504  and  _506
REMARK  204  A    between atoms: _506  and  _507
REMARK  205  A    between atoms: _506  and  _509
REMARK  206  A    between atoms: _509  and  _510
REMARK  207  A    between atoms: _513  and  _515
REMARK  208  A    between atoms: _515  and  _516
REMARK  209  A    between atoms: _519  and  _521
REMARK  210  A    between atoms: _521  and  _522
REMARK  211  A    between atoms: _521  and  _524
REMARK  212  A    between atoms: _524  and  _525
REMARK  213  A    between atoms: _530  and  _531
REMARK  214  A    between atoms: _533  and  _535
REMARK  215  A    between atoms: _535  and  _536
REMARK  216  A    between atoms: _535  and  _538
REMARK  217  A    between atoms: _538  and  _539
REMARK  218  A    between atoms: _541  and  _543
REMARK  219  A    between atoms: _543  and  _544
REMARK  220  A    between atoms: _543  and  _546
REMARK  221  A    between atoms: _546  and  _547
REMARK  222  A    between atoms: _550  and  _552
REMARK  223  A    between atoms: _552  and  _553
REMARK  224  A    between atoms: _552  and  _555
REMARK  225  A    between atoms: _555  and  _556
REMARK  226  A    between atoms: _558  and  _560
REMARK  227  A    between atoms: _560  and  _561
REMARK  228  A    between atoms: _560  and  _563
REMARK  229  A    between atoms: _563  and  _564
REMARK  230  A    between atoms: _567  and  _569
REMARK  231  A    between atoms: _569  and  _570
REMARK  232  A    between atoms: _569  and  _572
REMARK  233  A    between atoms: _572  and  _573
REMARK  234  A    between atoms: _575  and  _577
REMARK  235  A    between atoms: _577  and  _578
REMARK  236  A    between atoms: _577  and  _580
REMARK  237  A    between atoms: _580  and  _581
REMARK  238  A    between atoms: _584  and  _586
REMARK  239  A    between atoms: _586  and  _587
REMARK  240  A    between atoms: _586  and  _589
REMARK  241  A    between atoms: _589  and  _590
REMARK  242  A    between atoms: _595  and  _597
REMARK  243  A    between atoms: _597  and  _598
REMARK  244  A    between atoms: _597  and  _600
REMARK  245  A    between atoms: _600  and  _601
REMARK  246  A    between atoms: _603  and  _605
REMARK  247  A    between atoms: _605  and  _606
REMARK  248  A    between atoms: _605  and  _608
REMARK  249  A    between atoms: _608  and  _609
REMARK  250  A    between atoms: _615  and  _617
REMARK  251  A    between atoms: _617  and  _618
REMARK  252  A    between atoms: _617  and  _620
REMARK  253  A    between atoms: _620  and  _621
REMARK  254  A    between atoms: _623  and  _625
REMARK  255  A    between atoms: _625  and  _626
REMARK  256  A    between atoms: _625  and  _628
REMARK  257  A    between atoms: _628  and  _629
REMARK  258  A    between atoms: _635  and  _637
REMARK  259  A    between atoms: _637  and  _638
REMARK  260  A    between atoms: _637  and  _640
REMARK  261  A    between atoms: _640  and  _641
REMARK  262  A    between atoms: _643  and  _645
REMARK  263  A    between atoms: _645  and  _646
REMARK  264  A    between atoms: _645  and  _648
REMARK  265  A    between atoms: _648  and  _649
REMARK  266  A    between atoms: _654  and  _656
REMARK  267  A    between atoms: _656  and  _657
REMARK  268  A    between atoms: _656  and  _659
REMARK  269  A    between atoms: _659  and  _660
REMARK  270  A    between atoms: _663  and  _665
REMARK  271  A    between atoms: _665  and  _666
REMARK  272  A    between atoms: _665  and  _668
REMARK  273  A    between atoms: _668  and  _669
REMARK  274  A    between atoms: _672  and  _674
REMARK  275  A    between atoms: _674  and  _675
REMARK  276  A    between atoms: _674  and  _677
REMARK  277  A    between atoms: _677  and  _678
REMARK  278  A    between atoms: _678  and  _679
REMARK  279  A    between atoms: _684  and  _686
REMARK  280  A    between atoms: _686  and  _687
REMARK  281  A    between atoms: _690  and  _692
REMARK  282  A    between atoms: _692  and  _693
REMARK  283  A    between atoms: _692  and  _695
REMARK  284  A    between atoms: _698  and  _700
REMARK  285  A    between atoms: _700  and  _701
REMARK  286  A    between atoms: _700  and  _703
REMARK  287  A    between atoms: _703  and  _704
REMARK  288  A    between atoms: _707  and  _709
REMARK  289  A    between atoms: _709  and  _710
REMARK  290  A    between atoms: _709  and  _712
REMARK  291  A    between atoms: _712  and  _713
REMARK  292  A    between atoms: _713  and  _714
REMARK  293  A    between atoms: _714  and  _715
REMARK  294  A    between atoms: _724  and  _726
REMARK  295  A    between atoms: _726  and  _727
REMARK  296  A    between atoms: _726  and  _729
REMARK  297  A    between atoms: _729  and  _730
REMARK  298  A    between atoms: _730  and  _731
REMARK  299  A    between atoms: _731  and  _732
REMARK  300  A    between atoms: _732  and  _733
REMARK                            x       y       z     vdW  Elec       q    Type
REMARK                         _______ _______ _______ _____ _____    ______ ____
ROOT
ATOM      1  O   HOH     1      96.431  19.759  23.373  0.00  0.00    +0.000 OA
ENDROOT
TORSDOF 0
REMARK  Name = ../refined-set-2016/4fys/4fys_pocket.pdb
REMARK  300 active torsions:
REMARK  status: ('A' for Active; 'I' for Inactive)
REMARK    1  A    between atoms: _1  and  _3
REMARK    2  A    between atoms: _3  and  _4
REMARK    3  A    between atoms: _3  and  _6
REMARK    4  A    between atoms: _6  and  _7
REMARK    5  A    between atoms: _7  and  _8
REMARK    6  A    between atoms: _13  and  _15
REMARK    7  A    between atoms: _15  and  _16
REMARK    8  A    between atoms: _15  and  _18
REMARK    9  A    between atoms: _18  and  _19
REMARK   10  A    between atoms: _19  and  _20
REMARK   11  A    between atoms: _22  and  _24
REMARK   12  A    between atoms: _24  and  _25
REMARK   13  A    between atoms: _24  and  _27
REMARK   14  A    between atoms: _27  and  _28
REMARK   15  A    between atoms: _28  and  _29
REMARK   16  A    between atoms: _34  and  _36
REMARK   17  A    between atoms: _36  and  _37
REMARK   18  A    between atoms: _40  and  _42
REMARK   19  A    between atoms: _42  and  _43
REMARK   20  A    between atoms: _42  and  _45
REMARK   21  A    between atoms: _45  and  _46
REMARK   22  A    between atoms: _51  and  _52
REMARK   23  A    between atoms: _54  and  _56
REMARK   24  A    between atoms: _56  and  _57
REMARK   25  A    between atoms: _56  and  _59
REMARK   26  A    between atoms: _59  and  _60
REMARK   27  A    between atoms: _63  and  _65
REMARK   28  A    between atoms: _65  and  _66
REMARK   29  A    between atoms: _65  and  _68
REMARK   30  A    between atoms: _68  and  _69
REMARK   31  A    between atoms: _75  and  _77
REMARK   32  A    between atoms: _77  and  _78
REMARK   33  A    between atoms: _77  and  _80
REMARK   34  A    between atoms: _80  and  _81
REMARK   35  A    between atoms: _86  and  _88
REMARK   36  A    between atoms: _88  and  _89
REMARK   37  A    between atoms: _92  and  _94
REMARK   38  A    between atoms: _94  and  _95
REMARK   39  A    between atoms: _97  and  _99
REMARK   40  A    between atoms: _99  and  _100
REMARK   41  A    between atoms: _103  and  _105
REMARK   42  A    between atoms: _105  and  _106
REMARK   43  A    between atoms: _105  and  _108
REMARK   44  A    between atoms: _108  and  _109
REMARK   45  A    between atoms: _109  and  _110
REMARK   46  A    between atoms: _112  and  _114
REMARK   47  A    between atoms: _114  and  _115
REMARK   48  A    between atoms: _114  and  _117
REMARK   49  A    between atoms: _117  and  _118
REMARK   50  A    between atoms: _118  and  _119
REMARK   51  A    between atoms: _122  and  _124
REMARK   52  A    between atoms: _124  and  _125
REMARK   53  A    between atoms: _124  and  _127
REMARK   54  A    between atoms: _127  and  _128
REMARK   55  A    between atoms: _133  and  _135
REMARK   56  A    between atoms: _135  and  _136
REMARK   57  A    between atoms: _135  and  _138
REMARK   58  A    between atoms: _138  and  _139
REMARK   59  A    between atoms: _142  and  _144
REMARK   60  A    between atoms: _144  and  _145
REMARK   61  A    between atoms: _144  and  _147
REMARK   62  A    between atoms: _147  and  _148
REMARK   63  A    between atoms: _153  and  _154
REMARK   64  A    between atoms: _156  and  _158
REMARK   65  A    between atoms: _158  and  _159
REMARK   66  A    between atoms: _158  and  _161
REMARK   67  A    between atoms: _161  and  _162
REMARK   68  A    between atoms: _162  and  _163
REMARK   69  A    between atoms: _163  and  _164
REMARK   70  A    between atoms: _173  and  _175
REMARK   71  A    between atoms: _175  and  _176
REMARK   72  A    between atoms: _175  and  _178
REMARK   73  A    between atoms: _178  and  _179
REMARK   74  A    between atoms: _184  and  _186
REMARK   75  A    between atoms: _186  and  _187
REMARK   76  A    between atoms: _186  and  _189
REMARK   77  A    between atoms: _189  and  _190
REMARK   78  A    between atoms: _192  and  _194
REMARK   79  A    between atoms: _194  and  _195
REMARK   80  A    between atoms: _194  and  _197
REMARK   81  A    between atoms: _197  and  _198
REMARK   82  A    between atoms: _200  and  _202
REMARK   83  A    between atoms: _202  and  _203
REMARK   84  A    between atoms: _202  and  _205
REMARK   85  A    between atoms: _205  and  _206
REMARK   86  A    between atoms: _206  and  _207
REMARK   87  A    between atoms: _210  and  _212
REMARK   88  A    between atoms: _212  and  _213
REMARK   89  A    between atoms: _212  and  _215
REMARK   90  A    between atoms: _215  and  _216
REMARK   91  A    between atoms: _216  and  _217
REMARK   92  A    between atoms: _217  and  _218
REMARK   93  A    between atoms: _227  and  _229
REMARK   94  A    between atoms: _229  and  _230
REMARK   95  A    between atoms: _229  and  _232
REMARK   96  A    between atoms: _235  and  _237
REMARK   97  A    between atoms: _237  and  _238
REMARK   98  A    between atoms: _237  and  _240
REMARK   99  A    between atoms: _240  and  _241
REMARK  100  A    between atoms: _244  and  _246
REMARK  101  A    between atoms: _246  and  _247
REMARK  102  A    between atoms: _246  and  _249
REMARK  103  A    between atoms: _252  and  _254
REMARK  104  A    between atoms: _254  and  _255
REMARK  105  A    between atoms: _254  and  _257
REMARK  106  A    between atoms: _257  and  _258
REMARK  107  A    between atoms: _261  and  _263
REMARK  108  A    between atoms: _263  and  _264
REMARK  109  A    between atoms: _267  and  _269
REMARK  110  A    between atoms: _269  and  _270
REMARK  111  A    between atoms: _269  and  _272
REMARK  112  A    between atoms: _272  and  _273
REMARK  113  A    between atoms: _278  and  _280
REMARK  114  A    between atoms: _280  and  _281
REMARK  115  A    between atoms: _280  and  _283
REMARK  116  A    between atoms: _283  and  _284
REMARK  117  A    between atoms: _284  and  _285
REMARK  118  A    between atoms: _288  and  _290
REMARK  119  A    between atoms: _290  and  _291
REMARK  120  A    between atoms: _290  and  _293
REMARK  121  A    between atoms: _293  and  _294
REMARK  122  A    between atoms: _299  and  _301
REMARK  123  A    between atoms: _301  and  _302
REMARK  124  A    between atoms: _301  and  _304
REMARK  125  A    between atoms: _304  and  _305
REMARK  126  A    between atoms: _315  and  _317
REMARK  127  A    between atoms: _317  and  _318
REMARK  128  A    between atoms: _317  and  _320
REMARK  129  A    between atoms: _320  and  _321
REMARK  130  A    between atoms: _324  and  _326
REMARK  131  A    between atoms: _326  and  _327
REMARK  132  A    between atoms: _326  and  _329
REMARK  133  A    between atoms: _329  and  _330
REMARK  134  A    between atoms: _335  and  _337
REMARK  135  A    between atoms: _337  and  _338
REMARK  136  A    between atoms: _337  and  _340
REMARK  137  A    between atoms: _340  and  _341
REMARK  138  A    between atoms: _341  and  _342
REMARK  139  A    between atoms: _345  and  _347
REMARK  140  A    between atoms: _347  and  _348
REMARK  141  A    between atoms: _351  and  _353
REMARK  142  A    between atoms: _353  and  _354
REMARK  143  A    between atoms: _353  and  _356
REMARK  144  A    between atoms: _356  and  _357
REMARK  145  A    between atoms: _359  and  _361
REMARK  146  A    between atoms: _361  and  _362
REMARK  147  A    between atoms: _361  and  _364
REMARK  148  A    between atoms: _364  and  _365
REMARK  149  A    between atoms: _365  and  _366
REMARK  150  A    between atoms: _369  and  _371
REMARK  151  A    between atoms: _371  and  _372
REMARK  152  A    between atoms: _371  and  _374
REMARK  153  A    between atoms: _374  and  _375
REMARK  154  A    between atoms: _380  and  _381
REMARK  155  A    between atoms: _383  and  _385
REMARK  156  A    between atoms: _385  and  _386
REMARK  157  A    between atoms: _385  and  _388
REMARK  158  A    between atoms: _388  and  _389
REMARK  159  A    between atoms: _392  and  _394
REMARK  160  A    between atoms: _394  and  _395
REMARK  161  A    between atoms: _394  and  _397
REMARK  162  A    between atoms: _397  and  _398
REMARK  163  A    between atoms: _403  and  _405
REMARK  164  A    between atoms: _405  and  _406
REMARK  165  A    between atoms: _405  and  _408
REMARK  166  A    between atoms: _408  and  _409
REMARK  167  A    between atoms: _412  and  _414
REMARK  168  A    between atoms: _414  and  _415
REMARK  169  A    between atoms: _414  and  _417
REMARK  170  A    between atoms: _417  and  _418
REMARK  171  A    between atoms: _423  and  _424
REMARK  172  A    between atoms: _426  and  _428
REMARK  173  A    between atoms: _428  and  _429
REMARK  174  A    between atoms: _428  and  _431
REMARK  175  A    between atoms: _431  and  _432
REMARK  176  A    between atoms: _432  and  _433
REMARK  177  A    between atoms: _433  and  _434
REMARK  178  A    between atoms: _443  and  _445
REMARK  179  A    between atoms: _445  and  _446
REMARK  180  A    between atoms: _445  and  _448
REMARK  181  A    between atoms: _451  and  _453
REMARK  182  A    between atoms: _453  and  _454
REMARK  183  A    between atoms: _457  and  _459
REMARK  184  A    between atoms: _459  and  _460
REMARK  185  A    between atoms: _459  and  _462
REMARK  186  A    between atoms: _465  and  _467
REMARK  187  A    between atoms: _467  and  _468
REMARK  188  A    between atoms: _467  and  _470
REMARK  189  A    between atoms: _470  and  _471
REMARK  190  A    between atoms: _473  and  _475
REMARK  191  A    between atoms: _475  and  _476
REMARK  192  A    between atoms: _475  and  _478
REMARK  193  A    between atoms: _478  and  _479
REMARK  194  A    between atoms: _479  and  _480
REMARK  195  A    between atoms: _483  and  _485
REMARK  196  A    between atoms: _485  and  _486
REMARK  197  A    between atoms: _485  and  _488
REMARK  198  A    between atoms: _488  and  _489
REMARK  199  A    between atoms: _492  and  _494
REMARK  200  A    between atoms: _494  and  _495
REMARK  201  A    between atoms: _494  and  _497
REMARK  202  A    between atoms: _497  and  _498
REMARK  203  A    between atoms: _504  and  _506
REMARK  204  A    between atoms: _506  and  _507
REMARK  205  A    between atoms: _506  and  _509
REMARK  206  A    between atoms: _509  and  _510
REMARK  207  A    between atoms: _513  and  _515
REMARK  208  A    between atoms: _515  and  _516
REMARK  209  A    between atoms: _519  and  _521
REMARK  210  A    between atoms: _521  and  _522
REMARK  211  A    between atoms: _521  and  _524
REMARK  212  A    between atoms: _524  and  _525
REMARK  213  A    between atoms: _530  and  _531
REMARK  214  A    between atoms: _533  and  _535
REMARK  215  A    between atoms: _535  and  _536
REMARK  216  A    between atoms: _535  and  _538
REMARK  217  A    between atoms: _538  and  _539
REMARK  218  A    between atoms: _541  and  _543
REMARK  219  A    between atoms: _543  and  _544
REMARK  220  A    between atoms: _543  and  _546
REMARK  221  A    between atoms: _546  and  _547
REMARK  222  A    between atoms: _550  and  _552
REMARK  223  A    between atoms: _552  and  _553
REMARK  224  A    between atoms: _552  and  _555
REMARK  225  A    between atoms: _555  and  _556
REMARK  226  A    between atoms: _558  and  _560
REMARK  227  A    between atoms: _560  and  _561
REMARK  228  A    between atoms: _560  and  _563
REMARK  229  A    between atoms: _563  and  _564
REMARK  230  A    between atoms: _567  and  _569
REMARK  231  A    between atoms: _569  and  _570
REMARK  232  A    between atoms: _569  and  _572
REMARK  233  A    between atoms: _572  and  _573
REMARK  234  A    between atoms: _575  and  _577
REMARK  235  A    between atoms: _577  and  _578
REMARK  236  A    between atoms: _577  and  _580
REMARK  237  A    between atoms: _580  and  _581
REMARK  238  A    between atoms: _584  and  _586
REMARK  239  A    between atoms: _586  and  _587
REMARK  240  A    between atoms: _586  and  _589
REMARK  241  A    between atoms: _589  and  _590
REMARK  242  A    between atoms: _595  and  _597
REMARK  243  A    between atoms: _597  and  _598
REMARK  244  A    between atoms: _597  and  _600
REMARK  245  A    between atoms: _600  and  _601
REMARK  246  A    between atoms: _603  and  _605
REMARK  247  A    between atoms: _605  and  _606
REMARK  248  A    between atoms: _605  and  _608
REMARK  249  A    between atoms: _608  and  _609
REMARK  250  A    between atoms: _615  and  _617
REMARK  251  A    between atoms: _617  and  _618
REMARK  252  A    between atoms: _617  and  _620
REMARK  253  A    between atoms: _620  and  _621
REMARK  254  A    between atoms: _623  and  _625
REMARK  255  A    between atoms: _625  and  _626
REMARK  256  A    between atoms: _625  and  _628
REMARK  257  A    between atoms: _628  and  _629
REMARK  258  A    between atoms: _635  and  _637
REMARK  259  A    between atoms: _637  and  _638
REMARK  260  A    between atoms: _637  and  _640
REMARK  261  A    between atoms: _640  and  _641
REMARK  262  A    between atoms: _643  and  _645
REMARK  263  A    between atoms: _645  and  _646
REMARK  264  A    between atoms: _645  and  _648
REMARK  265  A    between atoms: _648  and  _649
REMARK  266  A    between atoms: _654  and  _656
REMARK  267  A    between atoms: _656  and  _657
REMARK  268  A    between atoms: _656  and  _659
REMARK  269  A    between atoms: _659  and  _660
REMARK  270  A    between atoms: _663  and  _665
REMARK  271  A    between atoms: _665  and  _666
REMARK  272  A    between atoms: _665  and  _668
REMARK  273  A    between atoms: _668  and  _669
REMARK  274  A    between atoms: _672  and  _674
REMARK  275  A    between atoms: _674  and  _675
REMARK  276  A    between atoms: _674  and  _677
REMARK  277  A    between atoms: _677  and  _678
REMARK  278  A    between atoms: _678  and  _679
REMARK  279  A    between atoms: _684  and  _686
REMARK  280  A    between atoms: _686  and  _687
REMARK  281  A    between atoms: _690  and  _692
REMARK  282  A    between atoms: _692  and  _693
REMARK  283  A    between atoms: _692  and  _695
REMARK  284  A    between atoms: _698  and  _700
REMARK  285  A    between atoms: _700  and  _701
REMARK  286  A    between atoms: _700  and  _703
REMARK  287  A    between atoms: _703  and  _704
REMARK  288  A    between atoms: _707  and  _709
REMARK  289  A    between atoms: _709  and  _710
REMARK  290  A    between atoms: _709  and  _712
REMARK  291  A    between atoms: _712  and  _713
REMARK  292  A    between atoms: _713  and  _714
REMARK  293  A    between atoms: _714  and  _715
REMARK  294  A    between atoms: _724  and  _726
REMARK  295  A    between atoms: _726  and  _727
REMARK  296  A    between atoms: _726  and  _729
REMARK  297  A    between atoms: _729  and  _730
REMARK  298  A    between atoms: _730  and  _731
REMARK  299  A    between atoms: _731  and  _732
REMARK  300  A    between atoms: _732  and  _733
REMARK                            x       y       z     vdW  Elec       q    Type
REMARK                         _______ _______ _______ _____ _____    ______ ____
ROOT
ATOM      1  O   HOH     1      90.721  10.537  11.048  0.00  0.00    +0.000 OA
ENDROOT
TORSDOF 0
REMARK  Name = ../refined-set-2016/4fys/4fys_pocket.pdb
REMARK  300 active torsions:
REMARK  status: ('A' for Active; 'I' for Inactive)
REMARK    1  A    between atoms: _1  and  _3
REMARK    2  A    between atoms: _3  and  _4
REMARK    3  A    between atoms: _3  and  _6
REMARK    4  A    between atoms: _6  and  _7
REMARK    5  A    between atoms: _7  and  _8
REMARK    6  A    between atoms: _13  and  _15
REMARK    7  A    between atoms: _15  and  _16
REMARK    8  A    between atoms: _15  and  _18
REMARK    9  A    between atoms: _18  and  _19
REMARK   10  A    between atoms: _19  and  _20
REMARK   11  A    between atoms: _22  and  _24
REMARK   12  A    between atoms: _24  and  _25
REMARK   13  A    between atoms: _24  and  _27
REMARK   14  A    between atoms: _27  and  _28
REMARK   15  A    between atoms: _28  and  _29
REMARK   16  A    between atoms: _34  and  _36
REMARK   17  A    between atoms: _36  and  _37
REMARK   18  A    between atoms: _40  and  _42
REMARK   19  A    between atoms: _42  and  _43
REMARK   20  A    between atoms: _42  and  _45
REMARK   21  A    between atoms: _45  and  _46
REMARK   22  A    between atoms: _51  and  _52
REMARK   23  A    between atoms: _54  and  _56
REMARK   24  A    between atoms: _56  and  _57
REMARK   25  A    between atoms: _56  and  _59
REMARK   26  A    between atoms: _59  and  _60
REMARK   27  A    between atoms: _63  and  _65
REMARK   28  A    between atoms: _65  and  _66
REMARK   29  A    between atoms: _65  and  _68
REMARK   30  A    between atoms: _68  and  _69
REMARK   31  A    between atoms: _75  and  _77
REMARK   32  A    between atoms: _77  and  _78
REMARK   33  A    between atoms: _77  and  _80
REMARK   34  A    between atoms: _80  and  _81
REMARK   35  A    between atoms: _86  and  _88
REMARK   36  A    between atoms: _88  and  _89
REMARK   37  A    between atoms: _92  and  _94
REMARK   38  A    between atoms: _94  and  _95
REMARK   39  A    between atoms: _97  and  _99
REMARK   40  A    between atoms: _99  and  _100
REMARK   41  A    between atoms: _103  and  _105
REMARK   42  A    between atoms: _105  and  _106
REMARK   43  A    between atoms: _105  and  _108
REMARK   44  A    between atoms: _108  and  _109
REMARK   45  A    between atoms: _109  and  _110
REMARK   46  A    between atoms: _112  and  _114
REMARK   47  A    between atoms: _114  and  _115
REMARK   48  A    between atoms: _114  and  _117
REMARK   49  A    between atoms: _117  and  _118
REMARK   50  A    between atoms: _118  and  _119
REMARK   51  A    between atoms: _122  and  _124
REMARK   52  A    between atoms: _124  and  _125
REMARK   53  A    between atoms: _124  and  _127
REMARK   54  A    between atoms: _127  and  _128
REMARK   55  A    between atoms: _133  and  _135
REMARK   56  A    between atoms: _135  and  _136
REMARK   57  A    between atoms: _135  and  _138
REMARK   58  A    between atoms: _138  and  _139
REMARK   59  A    between atoms: _142  and  _144
REMARK   60  A    between atoms: _144  and  _145
REMARK   61  A    between atoms: _144  and  _147
REMARK   62  A    between atoms: _147  and  _148
REMARK   63  A    between atoms: _153  and  _154
REMARK   64  A    between atoms: _156  and  _158
REMARK   65  A    between atoms: _158  and  _159
REMARK   66  A    between atoms: _158  and  _161
REMARK   67  A    between atoms: _161  and  _162
REMARK   68  A    between atoms: _162  and  _163
REMARK   69  A    between atoms: _163  and  _164
REMARK   70  A    between atoms: _173  and  _175
REMARK   71  A    between atoms: _175  and  _176
REMARK   72  A    between atoms: _175  and  _178
REMARK   73  A    between atoms: _178  and  _179
REMARK   74  A    between atoms: _184  and  _186
REMARK   75  A    between atoms: _186  and  _187
REMARK   76  A    between atoms: _186  and  _189
REMARK   77  A    between atoms: _189  and  _190
REMARK   78  A    between atoms: _192  and  _194
REMARK   79  A    between atoms: _194  and  _195
REMARK   80  A    between atoms: _194  and  _197
REMARK   81  A    between atoms: _197  and  _198
REMARK   82  A    between atoms: _200  and  _202
REMARK   83  A    between atoms: _202  and  _203
REMARK   84  A    between atoms: _202  and  _205
REMARK   85  A    between atoms: _205  and  _206
REMARK   86  A    between atoms: _206  and  _207
REMARK   87  A    between atoms: _210  and  _212
REMARK   88  A    between atoms: _212  and  _213
REMARK   89  A    between atoms: _212  and  _215
REMARK   90  A    between atoms: _215  and  _216
REMARK   91  A    between atoms: _216  and  _217
REMARK   92  A    between atoms: _217  and  _218
REMARK   93  A    between atoms: _227  and  _229
REMARK   94  A    between atoms: _229  and  _230
REMARK   95  A    between atoms: _229  and  _232
REMARK   96  A    between atoms: _235  and  _237
REMARK   97  A    between atoms: _237  and  _238
REMARK   98  A    between atoms: _237  and  _240
REMARK   99  A    between atoms: _240  and  _241
REMARK  100  A    between atoms: _244  and  _246
REMARK  101  A    between atoms: _246  and  _247
REMARK  102  A    between atoms: _246  and  _249
REMARK  103  A    between atoms: _252  and  _254
REMARK  104  A    between atoms: _254  and  _255
REMARK  105  A    between atoms: _254  and  _257
REMARK  106  A    between atoms: _257  and  _258
REMARK  107  A    between atoms: _261  and  _263
REMARK  108  A    between atoms: _263  and  _264
REMARK  109  A    between atoms: _267  and  _269
REMARK  110  A    between atoms: _269  and  _270
REMARK  111  A    between atoms: _269  and  _272
REMARK  112  A    between atoms: _272  and  _273
REMARK  113  A    between atoms: _278  and  _280
REMARK  114  A    between atoms: _280  and  _281
REMARK  115  A    between atoms: _280  and  _283
REMARK  116  A    between atoms: _283  and  _284
REMARK  117  A    between atoms: _284  and  _285
REMARK  118  A    between atoms: _288  and  _290
REMARK  119  A    between atoms: _290  and  _291
REMARK  120  A    between atoms: _290  and  _293
REMARK  121  A    between atoms: _293  and  _294
REMARK  122  A    between atoms: _299  and  _301
REMARK  123  A    between atoms: _301  and  _302
REMARK  124  A    between atoms: _301  and  _304
REMARK  125  A    between atoms: _304  and  _305
REMARK  126  A    between atoms: _315  and  _317
REMARK  127  A    between atoms: _317  and  _318
REMARK  128  A    between atoms: _317  and  _320
REMARK  129  A    between atoms: _320  and  _321
REMARK  130  A    between atoms: _324  and  _326
REMARK  131  A    between atoms: _326  and  _327
REMARK  132  A    between atoms: _326  and  _329
REMARK  133  A    between atoms: _329  and  _330
REMARK  134  A    between atoms: _335  and  _337
REMARK  135  A    between atoms: _337  and  _338
REMARK  136  A    between atoms: _337  and  _340
REMARK  137  A    between atoms: _340  and  _341
REMARK  138  A    between atoms: _341  and  _342
REMARK  139  A    between atoms: _345  and  _347
REMARK  140  A    between atoms: _347  and  _348
REMARK  141  A    between atoms: _351  and  _353
REMARK  142  A    between atoms: _353  and  _354
REMARK  143  A    between atoms: _353  and  _356
REMARK  144  A    between atoms: _356  and  _357
REMARK  145  A    between atoms: _359  and  _361
REMARK  146  A    between atoms: _361  and  _362
REMARK  147  A    between atoms: _361  and  _364
REMARK  148  A    between atoms: _364  and  _365
REMARK  149  A    between atoms: _365  and  _366
REMARK  150  A    between atoms: _369  and  _371
REMARK  151  A    between atoms: _371  and  _372
REMARK  152  A    between atoms: _371  and  _374
REMARK  153  A    between atoms: _374  and  _375
REMARK  154  A    between atoms: _380  and  _381
REMARK  155  A    between atoms: _383  and  _385
REMARK  156  A    between atoms: _385  and  _386
REMARK  157  A    between atoms: _385  and  _388
REMARK  158  A    between atoms: _388  and  _389
REMARK  159  A    between atoms: _392  and  _394
REMARK  160  A    between atoms: _394  and  _395
REMARK  161  A    between atoms: _394  and  _397
REMARK  162  A    between atoms: _397  and  _398
REMARK  163  A    between atoms: _403  and  _405
REMARK  164  A    between atoms: _405  and  _406
REMARK  165  A    between atoms: _405  and  _408
REMARK  166  A    between atoms: _408  and  _409
REMARK  167  A    between atoms: _412  and  _414
REMARK  168  A    between atoms: _414  and  _415
REMARK  169  A    between atoms: _414  and  _417
REMARK  170  A    between atoms: _417  and  _418
REMARK  171  A    between atoms: _423  and  _424
REMARK  172  A    between atoms: _426  and  _428
REMARK  173  A    between atoms: _428  and  _429
REMARK  174  A    between atoms: _428  and  _431
REMARK  175  A    between atoms: _431  and  _432
REMARK  176  A    between atoms: _432  and  _433
REMARK  177  A    between atoms: _433  and  _434
REMARK  178  A    between atoms: _443  and  _445
REMARK  179  A    between atoms: _445  and  _446
REMARK  180  A    between atoms: _445  and  _448
REMARK  181  A    between atoms: _451  and  _453
REMARK  182  A    between atoms: _453  and  _454
REMARK  183  A    between atoms: _457  and  _459
REMARK  184  A    between atoms: _459  and  _460
REMARK  185  A    between atoms: _459  and  _462
REMARK  186  A    between atoms: _465  and  _467
REMARK  187  A    between atoms: _467  and  _468
REMARK  188  A    between atoms: _467  and  _470
REMARK  189  A    between atoms: _470  and  _471
REMARK  190  A    between atoms: _473  and  _475
REMARK  191  A    between atoms: _475  and  _476
REMARK  192  A    between atoms: _475  and  _478
REMARK  193  A    between atoms: _478  and  _479
REMARK  194  A    between atoms: _479  and  _480
REMARK  195  A    between atoms: _483  and  _485
REMARK  196  A    between atoms: _485  and  _486
REMARK  197  A    between atoms: _485  and  _488
REMARK  198  A    between atoms: _488  and  _489
REMARK  199  A    between atoms: _492  and  _494
REMARK  200  A    between atoms: _494  and  _495
REMARK  201  A    between atoms: _494  and  _497
REMARK  202  A    between atoms: _497  and  _498
REMARK  203  A    between atoms: _504  and  _506
REMARK  204  A    between atoms: _506  and  _507
REMARK  205  A    between atoms: _506  and  _509
REMARK  206  A    between atoms: _509  and  _510
REMARK  207  A    between atoms: _513  and  _515
REMARK  208  A    between atoms: _515  and  _516
REMARK  209  A    between atoms: _519  and  _521
REMARK  210  A    between atoms: _521  and  _522
REMARK  211  A    between atoms: _521  and  _524
REMARK  212  A    between atoms: _524  and  _525
REMARK  213  A    between atoms: _530  and  _531
REMARK  214  A    between atoms: _533  and  _535
REMARK  215  A    between atoms: _535  and  _536
REMARK  216  A    between atoms: _535  and  _538
REMARK  217  A    between atoms: _538  and  _539
REMARK  218  A    between atoms: _541  and  _543
REMARK  219  A    between atoms: _543  and  _544
REMARK  220  A    between atoms: _543  and  _546
REMARK  221  A    between atoms: _546  and  _547
REMARK  222  A    between atoms: _550  and  _552
REMARK  223  A    between atoms: _552  and  _553
REMARK  224  A    between atoms: _552  and  _555
REMARK  225  A    between atoms: _555  and  _556
REMARK  226  A    between atoms: _558  and  _560
REMARK  227  A    between atoms: _560  and  _561
REMARK  228  A    between atoms: _560  and  _563
REMARK  229  A    between atoms: _563  and  _564
REMARK  230  A    between atoms: _567  and  _569
REMARK  231  A    between atoms: _569  and  _570
REMARK  232  A    between atoms: _569  and  _572
REMARK  233  A    between atoms: _572  and  _573
REMARK  234  A    between atoms: _575  and  _577
REMARK  235  A    between atoms: _577  and  _578
REMARK  236  A    between atoms: _577  and  _580
REMARK  237  A    between atoms: _580  and  _581
REMARK  238  A    between atoms: _584  and  _586
REMARK  239  A    between atoms: _586  and  _587
REMARK  240  A    between atoms: _586  and  _589
REMARK  241  A    between atoms: _589  and  _590
REMARK  242  A    between atoms: _595  and  _597
REMARK  243  A    between atoms: _597  and  _598
REMARK  244  A    between atoms: _597  and  _600
REMARK  245  A    between atoms: _600  and  _601
REMARK  246  A    between atoms: _603  and  _605
REMARK  247  A    between atoms: _605  and  _606
REMARK  248  A    between atoms: _605  and  _608
REMARK  249  A    between atoms: _608  and  _609
REMARK  250  A    between atoms: _615  and  _617
REMARK  251  A    between atoms: _617  and  _618
REMARK  252  A    between atoms: _617  and  _620
REMARK  253  A    between atoms: _620  and  _621
REMARK  254  A    between atoms: _623  and  _625
REMARK  255  A    between atoms: _625  and  _626
REMARK  256  A    between atoms: _625  and  _628
REMARK  257  A    between atoms: _628  and  _629
REMARK  258  A    between atoms: _635  and  _637
REMARK  259  A    between atoms: _637  and  _638
REMARK  260  A    between atoms: _637  and  _640
REMARK  261  A    between atoms: _640  and  _641
REMARK  262  A    between atoms: _643  and  _645
REMARK  263  A    between atoms: _645  and  _646
REMARK  264  A    between atoms: _645  and  _648
REMARK  265  A    between atoms: _648  and  _649
REMARK  266  A    between atoms: _654  and  _656
REMARK  267  A    between atoms: _656  and  _657
REMARK  268  A    between atoms: _656  and  _659
REMARK  269  A    between atoms: _659  and  _660
REMARK  270  A    between atoms: _663  and  _665
REMARK  271  A    between atoms: _665  and  _666
REMARK  272  A    between atoms: _665  and  _668
REMARK  273  A    between atoms: _668  and  _669
REMARK  274  A    between atoms: _672  and  _674
REMARK  275  A    between atoms: _674  and  _675
REMARK  276  A    between atoms: _674  and  _677
REMARK  277  A    between atoms: _677  and  _678
REMARK  278  A    between atoms: _678  and  _679
REMARK  279  A    between atoms: _684  and  _686
REMARK  280  A    between atoms: _686  and  _687
REMARK  281  A    between atoms: _690  and  _692
REMARK  282  A    between atoms: _692  and  _693
REMARK  283  A    between atoms: _692  and  _695
REMARK  284  A    between atoms: _698  and  _700
REMARK  285  A    between atoms: _700  and  _701
REMARK  286  A    between atoms: _700  and  _703
REMARK  287  A    between atoms: _703  and  _704
REMARK  288  A    between atoms: _707  and  _709
REMARK  289  A    between atoms: _709  and  _710
REMARK  290  A    between atoms: _709  and  _712
REMARK  291  A    between atoms: _712  and  _713
REMARK  292  A    between atoms: _713  and  _714
REMARK  293  A    between atoms: _714  and  _715
REMARK  294  A    between atoms: _724  and  _726
REMARK  295  A    between atoms: _726  and  _727
REMARK  296  A    between atoms: _726  and  _729
REMARK  297  A    between atoms: _729  and  _730
REMARK  298  A    between atoms: _730  and  _731
REMARK  299  A    between atoms: _731  and  _732
REMARK  300  A    between atoms: _732  and  _733
REMARK                            x       y       z     vdW  Elec       q    Type
REMARK                         _______ _______ _______ _____ _____    ______ ____
ROOT
ATOM      1  O   HOH     1      86.582  15.338  14.379  0.00  0.00    +0.000 OA
ENDROOT
TORSDOF 0
REMARK  Name = ../refined-set-2016/4fys/4fys_pocket.pdb
REMARK  300 active torsions:
REMARK  status: ('A' for Active; 'I' for Inactive)
REMARK    1  A    between atoms: _1  and  _3
REMARK    2  A    between atoms: _3  and  _4
REMARK    3  A    between atoms: _3  and  _6
REMARK    4  A    between atoms: _6  and  _7
REMARK    5  A    between atoms: _7  and  _8
REMARK    6  A    between atoms: _13  and  _15
REMARK    7  A    between atoms: _15  and  _16
REMARK    8  A    between atoms: _15  and  _18
REMARK    9  A    between atoms: _18  and  _19
REMARK   10  A    between atoms: _19  and  _20
REMARK   11  A    between atoms: _22  and  _24
REMARK   12  A    between atoms: _24  and  _25
REMARK   13  A    between atoms: _24  and  _27
REMARK   14  A    between atoms: _27  and  _28
REMARK   15  A    between atoms: _28  and  _29
REMARK   16  A    between atoms: _34  and  _36
REMARK   17  A    between atoms: _36  and  _37
REMARK   18  A    between atoms: _40  and  _42
REMARK   19  A    between atoms: _42  and  _43
REMARK   20  A    between atoms: _42  and  _45
REMARK   21  A    between atoms: _45  and  _46
REMARK   22  A    between atoms: _51  and  _52
REMARK   23  A    between atoms: _54  and  _56
REMARK   24  A    between atoms: _56  and  _57
REMARK   25  A    between atoms: _56  and  _59
REMARK   26  A    between atoms: _59  and  _60
REMARK   27  A    between atoms: _63  and  _65
REMARK   28  A    between atoms: _65  and  _66
REMARK   29  A    between atoms: _65  and  _68
REMARK   30  A    between atoms: _68  and  _69
REMARK   31  A    between atoms: _75  and  _77
REMARK   32  A    between atoms: _77  and  _78
REMARK   33  A    between atoms: _77  and  _80
REMARK   34  A    between atoms: _80  and  _81
REMARK   35  A    between atoms: _86  and  _88
REMARK   36  A    between atoms: _88  and  _89
REMARK   37  A    between atoms: _92  and  _94
REMARK   38  A    between atoms: _94  and  _95
REMARK   39  A    between atoms: _97  and  _99
REMARK   40  A    between atoms: _99  and  _100
REMARK   41  A    between atoms: _103  and  _105
REMARK   42  A    between atoms: _105  and  _106
REMARK   43  A    between atoms: _105  and  _108
REMARK   44  A    between atoms: _108  and  _109
REMARK   45  A    between atoms: _109  and  _110
REMARK   46  A    between atoms: _112  and  _114
REMARK   47  A    between atoms: _114  and  _115
REMARK   48  A    between atoms: _114  and  _117
REMARK   49  A    between atoms: _117  and  _118
REMARK   50  A    between atoms: _118  and  _119
REMARK   51  A    between atoms: _122  and  _124
REMARK   52  A    between atoms: _124  and  _125
REMARK   53  A    between atoms: _124  and  _127
REMARK   54  A    between atoms: _127  and  _128
REMARK   55  A    between atoms: _133  and  _135
REMARK   56  A    between atoms: _135  and  _136
REMARK   57  A    between atoms: _135  and  _138
REMARK   58  A    between atoms: _138  and  _139
REMARK   59  A    between atoms: _142  and  _144
REMARK   60  A    between atoms: _144  and  _145
REMARK   61  A    between atoms: _144  and  _147
REMARK   62  A    between atoms: _147  and  _148
REMARK   63  A    between atoms: _153  and  _154
REMARK   64  A    between atoms: _156  and  _158
REMARK   65  A    between atoms: _158  and  _159
REMARK   66  A    between atoms: _158  and  _161
REMARK   67  A    between atoms: _161  and  _162
REMARK   68  A    between atoms: _162  and  _163
REMARK   69  A    between atoms: _163  and  _164
REMARK   70  A    between atoms: _173  and  _175
REMARK   71  A    between atoms: _175  and  _176
REMARK   72  A    between atoms: _175  and  _178
REMARK   73  A    between atoms: _178  and  _179
REMARK   74  A    between atoms: _184  and  _186
REMARK   75  A    between atoms: _186  and  _187
REMARK   76  A    between atoms: _186  and  _189
REMARK   77  A    between atoms: _189  and  _190
REMARK   78  A    between atoms: _192  and  _194
REMARK   79  A    between atoms: _194  and  _195
REMARK   80  A    between atoms: _194  and  _197
REMARK   81  A    between atoms: _197  and  _198
REMARK   82  A    between atoms: _200  and  _202
REMARK   83  A    between atoms: _202  and  _203
REMARK   84  A    between atoms: _202  and  _205
REMARK   85  A    between atoms: _205  and  _206
REMARK   86  A    between atoms: _206  and  _207
REMARK   87  A    between atoms: _210  and  _212
REMARK   88  A    between atoms: _212  and  _213
REMARK   89  A    between atoms: _212  and  _215
REMARK   90  A    between atoms: _215  and  _216
REMARK   91  A    between atoms: _216  and  _217
REMARK   92  A    between atoms: _217  and  _218
REMARK   93  A    between atoms: _227  and  _229
REMARK   94  A    between atoms: _229  and  _230
REMARK   95  A    between atoms: _229  and  _232
REMARK   96  A    between atoms: _235  and  _237
REMARK   97  A    between atoms: _237  and  _238
REMARK   98  A    between atoms: _237  and  _240
REMARK   99  A    between atoms: _240  and  _241
REMARK  100  A    between atoms: _244  and  _246
REMARK  101  A    between atoms: _246  and  _247
REMARK  102  A    between atoms: _246  and  _249
REMARK  103  A    between atoms: _252  and  _254
REMARK  104  A    between atoms: _254  and  _255
REMARK  105  A    between atoms: _254  and  _257
REMARK  106  A    between atoms: _257  and  _258
REMARK  107  A    between atoms: _261  and  _263
REMARK  108  A    between atoms: _263  and  _264
REMARK  109  A    between atoms: _267  and  _269
REMARK  110  A    between atoms: _269  and  _270
REMARK  111  A    between atoms: _269  and  _272
REMARK  112  A    between atoms: _272  and  _273
REMARK  113  A    between atoms: _278  and  _280
REMARK  114  A    between atoms: _280  and  _281
REMARK  115  A    between atoms: _280  and  _283
REMARK  116  A    between atoms: _283  and  _284
REMARK  117  A    between atoms: _284  and  _285
REMARK  118  A    between atoms: _288  and  _290
REMARK  119  A    between atoms: _290  and  _291
REMARK  120  A    between atoms: _290  and  _293
REMARK  121  A    between atoms: _293  and  _294
REMARK  122  A    between atoms: _299  and  _301
REMARK  123  A    between atoms: _301  and  _302
REMARK  124  A    between atoms: _301  and  _304
REMARK  125  A    between atoms: _304  and  _305
REMARK  126  A    between atoms: _315  and  _317
REMARK  127  A    between atoms: _317  and  _318
REMARK  128  A    between atoms: _317  and  _320
REMARK  129  A    between atoms: _320  and  _321
REMARK  130  A    between atoms: _324  and  _326
REMARK  131  A    between atoms: _326  and  _327
REMARK  132  A    between atoms: _326  and  _329
REMARK  133  A    between atoms: _329  and  _330
REMARK  134  A    between atoms: _335  and  _337
REMARK  135  A    between atoms: _337  and  _338
REMARK  136  A    between atoms: _337  and  _340
REMARK  137  A    between atoms: _340  and  _341
REMARK  138  A    between atoms: _341  and  _342
REMARK  139  A    between atoms: _345  and  _347
REMARK  140  A    between atoms: _347  and  _348
REMARK  141  A    between atoms: _351  and  _353
REMARK  142  A    between atoms: _353  and  _354
REMARK  143  A    between atoms: _353  and  _356
REMARK  144  A    between atoms: _356  and  _357
REMARK  145  A    between atoms: _359  and  _361
REMARK  146  A    between atoms: _361  and  _362
REMARK  147  A    between atoms: _361  and  _364
REMARK  148  A    between atoms: _364  and  _365
REMARK  149  A    between atoms: _365  and  _366
REMARK  150  A    between atoms: _369  and  _371
REMARK  151  A    between atoms: _371  and  _372
REMARK  152  A    between atoms: _371  and  _374
REMARK  153  A    between atoms: _374  and  _375
REMARK  154  A    between atoms: _380  and  _381
REMARK  155  A    between atoms: _383  and  _385
REMARK  156  A    between atoms: _385  and  _386
REMARK  157  A    between atoms: _385  and  _388
REMARK  158  A    between atoms: _388  and  _389
REMARK  159  A    between atoms: _392  and  _394
REMARK  160  A    between atoms: _394  and  _395
REMARK  161  A    between atoms: _394  and  _397
REMARK  162  A    between atoms: _397  and  _398
REMARK  163  A    between atoms: _403  and  _405
REMARK  164  A    between atoms: _405  and  _406
REMARK  165  A    between atoms: _405  and  _408
REMARK  166  A    between atoms: _408  and  _409
REMARK  167  A    between atoms: _412  and  _414
REMARK  168  A    between atoms: _414  and  _415
REMARK  169  A    between atoms: _414  and  _417
REMARK  170  A    between atoms: _417  and  _418
REMARK  171  A    between atoms: _423  and  _424
REMARK  172  A    between atoms: _426  and  _428
REMARK  173  A    between atoms: _428  and  _429
REMARK  174  A    between atoms: _428  and  _431
REMARK  175  A    between atoms: _431  and  _432
REMARK  176  A    between atoms: _432  and  _433
REMARK  177  A    between atoms: _433  and  _434
REMARK  178  A    between atoms: _443  and  _445
REMARK  179  A    between atoms: _445  and  _446
REMARK  180  A    between atoms: _445  and  _448
REMARK  181  A    between atoms: _451  and  _453
REMARK  182  A    between atoms: _453  and  _454
REMARK  183  A    between atoms: _457  and  _459
REMARK  184  A    between atoms: _459  and  _460
REMARK  185  A    between atoms: _459  and  _462
REMARK  186  A    between atoms: _465  and  _467
REMARK  187  A    between atoms: _467  and  _468
REMARK  188  A    between atoms: _467  and  _470
REMARK  189  A    between atoms: _470  and  _471
REMARK  190  A    between atoms: _473  and  _475
REMARK  191  A    between atoms: _475  and  _476
REMARK  192  A    between atoms: _475  and  _478
REMARK  193  A    between atoms: _478  and  _479
REMARK  194  A    between atoms: _479  and  _480
REMARK  195  A    between atoms: _483  and  _485
REMARK  196  A    between atoms: _485  and  _486
REMARK  197  A    between atoms: _485  and  _488
REMARK  198  A    between atoms: _488  and  _489
REMARK  199  A    between atoms: _492  and  _494
REMARK  200  A    between atoms: _494  and  _495
REMARK  201  A    between atoms: _494  and  _497
REMARK  202  A    between atoms: _497  and  _498
REMARK  203  A    between atoms: _504  and  _506
REMARK  204  A    between atoms: _506  and  _507
REMARK  205  A    between atoms: _506  and  _509
REMARK  206  A    between atoms: _509  and  _510
REMARK  207  A    between atoms: _513  and  _515
REMARK  208  A    between atoms: _515  and  _516
REMARK  209  A    between atoms: _519  and  _521
REMARK  210  A    between atoms: _521  and  _522
REMARK  211  A    between atoms: _521  and  _524
REMARK  212  A    between atoms: _524  and  _525
REMARK  213  A    between atoms: _530  and  _531
REMARK  214  A    between atoms: _533  and  _535
REMARK  215  A    between atoms: _535  and  _536
REMARK  216  A    between atoms: _535  and  _538
REMARK  217  A    between atoms: _538  and  _539
REMARK  218  A    between atoms: _541  and  _543
REMARK  219  A    between atoms: _543  and  _544
REMARK  220  A    between atoms: _543  and  _546
REMARK  221  A    between atoms: _546  and  _547
REMARK  222  A    between atoms: _550  and  _552
REMARK  223  A    between atoms: _552  and  _553
REMARK  224  A    between atoms: _552  and  _555
REMARK  225  A    between atoms: _555  and  _556
REMARK  226  A    between atoms: _558  and  _560
REMARK  227  A    between atoms: _560  and  _561
REMARK  228  A    between atoms: _560  and  _563
REMARK  229  A    between atoms: _563  and  _564
REMARK  230  A    between atoms: _567  and  _569
REMARK  231  A    between atoms: _569  and  _570
REMARK  232  A    between atoms: _569  and  _572
REMARK  233  A    between atoms: _572  and  _573
REMARK  234  A    between atoms: _575  and  _577
REMARK  235  A    between atoms: _577  and  _578
REMARK  236  A    between atoms: _577  and  _580
REMARK  237  A    between atoms: _580  and  _581
REMARK  238  A    between atoms: _584  and  _586
REMARK  239  A    between atoms: _586  and  _587
REMARK  240  A    between atoms: _586  and  _589
REMARK  241  A    between atoms: _589  and  _590
REMARK  242  A    between atoms: _595  and  _597
REMARK  243  A    between atoms: _597  and  _598
REMARK  244  A    between atoms: _597  and  _600
REMARK  245  A    between atoms: _600  and  _601
REMARK  246  A    between atoms: _603  and  _605
REMARK  247  A    between atoms: _605  and  _606
REMARK  248  A    between atoms: _605  and  _608
REMARK  249  A    between atoms: _608  and  _609
REMARK  250  A    between atoms: _615  and  _617
REMARK  251  A    between atoms: _617  and  _618
REMARK  252  A    between atoms: _617  and  _620
REMARK  253  A    between atoms: _620  and  _621
REMARK  254  A    between atoms: _623  and  _625
REMARK  255  A    between atoms: _625  and  _626
REMARK  256  A    between atoms: _625  and  _628
REMARK  257  A    between atoms: _628  and  _629
REMARK  258  A    between atoms: _635  and  _637
REMARK  259  A    between atoms: _637  and  _638
REMARK  260  A    between atoms: _637  and  _640
REMARK  261  A    between atoms: _640  and  _641
REMARK  262  A    between atoms: _643  and  _645
REMARK  263  A    between atoms: _645  and  _646
REMARK  264  A    between atoms: _645  and  _648
REMARK  265  A    between atoms: _648  and  _649
REMARK  266  A    between atoms: _654  and  _656
REMARK  267  A    between atoms: _656  and  _657
REMARK  268  A    between atoms: _656  and  _659
REMARK  269  A    between atoms: _659  and  _660
REMARK  270  A    between atoms: _663  and  _665
REMARK  271  A    between atoms: _665  and  _666
REMARK  272  A    between atoms: _665  and  _668
REMARK  273  A    between atoms: _668  and  _669
REMARK  274  A    between atoms: _672  and  _674
REMARK  275  A    between atoms: _674  and  _675
REMARK  276  A    between atoms: _674  and  _677
REMARK  277  A    between atoms: _677  and  _678
REMARK  278  A    between atoms: _678  and  _679
REMARK  279  A    between atoms: _684  and  _686
REMARK  280  A    between atoms: _686  and  _687
REMARK  281  A    between atoms: _690  and  _692
REMARK  282  A    between atoms: _692  and  _693
REMARK  283  A    between atoms: _692  and  _695
REMARK  284  A    between atoms: _698  and  _700
REMARK  285  A    between atoms: _700  and  _701
REMARK  286  A    between atoms: _700  and  _703
REMARK  287  A    between atoms: _703  and  _704
REMARK  288  A    between atoms: _707  and  _709
REMARK  289  A    between atoms: _709  and  _710
REMARK  290  A    between atoms: _709  and  _712
REMARK  291  A    between atoms: _712  and  _713
REMARK  292  A    between atoms: _713  and  _714
REMARK  293  A    between atoms: _714  and  _715
REMARK  294  A    between atoms: _724  and  _726
REMARK  295  A    between atoms: _726  and  _727
REMARK  296  A    between atoms: _726  and  _729
REMARK  297  A    between atoms: _729  and  _730
REMARK  298  A    between atoms: _730  and  _731
REMARK  299  A    between atoms: _731  and  _732
REMARK  300  A    between atoms: _732  and  _733
REMARK                            x       y       z     vdW  Elec       q    Type
REMARK                         _______ _______ _______ _____ _____    ______ ____
ROOT
ATOM      1  O   HOH     1      97.211   9.800  22.377  0.00  0.00    +0.000 OA
ENDROOT
TORSDOF 0
REMARK  Name = ../refined-set-2016/4fys/4fys_pocket.pdb
REMARK  300 active torsions:
REMARK  status: ('A' for Active; 'I' for Inactive)
REMARK    1  A    between atoms: _1  and  _3
REMARK    2  A    between atoms: _3  and  _4
REMARK    3  A    between atoms: _3  and  _6
REMARK    4  A    between atoms: _6  and  _7
REMARK    5  A    between atoms: _7  and  _8
REMARK    6  A    between atoms: _13  and  _15
REMARK    7  A    between atoms: _15  and  _16
REMARK    8  A    between atoms: _15  and  _18
REMARK    9  A    between atoms: _18  and  _19
REMARK   10  A    between atoms: _19  and  _20
REMARK   11  A    between atoms: _22  and  _24
REMARK   12  A    between atoms: _24  and  _25
REMARK   13  A    between atoms: _24  and  _27
REMARK   14  A    between atoms: _27  and  _28
REMARK   15  A    between atoms: _28  and  _29
REMARK   16  A    between atoms: _34  and  _36
REMARK   17  A    between atoms: _36  and  _37
REMARK   18  A    between atoms: _40  and  _42
REMARK   19  A    between atoms: _42  and  _43
REMARK   20  A    between atoms: _42  and  _45
REMARK   21  A    between atoms: _45  and  _46
REMARK   22  A    between atoms: _51  and  _52
REMARK   23  A    between atoms: _54  and  _56
REMARK   24  A    between atoms: _56  and  _57
REMARK   25  A    between atoms: _56  and  _59
REMARK   26  A    between atoms: _59  and  _60
REMARK   27  A    between atoms: _63  and  _65
REMARK   28  A    between atoms: _65  and  _66
REMARK   29  A    between atoms: _65  and  _68
REMARK   30  A    between atoms: _68  and  _69
REMARK   31  A    between atoms: _75  and  _77
REMARK   32  A    between atoms: _77  and  _78
REMARK   33  A    between atoms: _77  and  _80
REMARK   34  A    between atoms: _80  and  _81
REMARK   35  A    between atoms: _86  and  _88
REMARK   36  A    between atoms: _88  and  _89
REMARK   37  A    between atoms: _92  and  _94
REMARK   38  A    between atoms: _94  and  _95
REMARK   39  A    between atoms: _97  and  _99
REMARK   40  A    between atoms: _99  and  _100
REMARK   41  A    between atoms: _103  and  _105
REMARK   42  A    between atoms: _105  and  _106
REMARK   43  A    between atoms: _105  and  _108
REMARK   44  A    between atoms: _108  and  _109
REMARK   45  A    between atoms: _109  and  _110
REMARK   46  A    between atoms: _112  and  _114
REMARK   47  A    between atoms: _114  and  _115
REMARK   48  A    between atoms: _114  and  _117
REMARK   49  A    between atoms: _117  and  _118
REMARK   50  A    between atoms: _118  and  _119
REMARK   51  A    between atoms: _122  and  _124
REMARK   52  A    between atoms: _124  and  _125
REMARK   53  A    between atoms: _124  and  _127
REMARK   54  A    between atoms: _127  and  _128
REMARK   55  A    between atoms: _133  and  _135
REMARK   56  A    between atoms: _135  and  _136
REMARK   57  A    between atoms: _135  and  _138
REMARK   58  A    between atoms: _138  and  _139
REMARK   59  A    between atoms: _142  and  _144
REMARK   60  A    between atoms: _144  and  _145
REMARK   61  A    between atoms: _144  and  _147
REMARK   62  A    between atoms: _147  and  _148
REMARK   63  A    between atoms: _153  and  _154
REMARK   64  A    between atoms: _156  and  _158
REMARK   65  A    between atoms: _158  and  _159
REMARK   66  A    between atoms: _158  and  _161
REMARK   67  A    between atoms: _161  and  _162
REMARK   68  A    between atoms: _162  and  _163
REMARK   69  A    between atoms: _163  and  _164
REMARK   70  A    between atoms: _173  and  _175
REMARK   71  A    between atoms: _175  and  _176
REMARK   72  A    between atoms: _175  and  _178
REMARK   73  A    between atoms: _178  and  _179
REMARK   74  A    between atoms: _184  and  _186
REMARK   75  A    between atoms: _186  and  _187
REMARK   76  A    between atoms: _186  and  _189
REMARK   77  A    between atoms: _189  and  _190
REMARK   78  A    between atoms: _192  and  _194
REMARK   79  A    between atoms: _194  and  _195
REMARK   80  A    between atoms: _194  and  _197
REMARK   81  A    between atoms: _197  and  _198
REMARK   82  A    between atoms: _200  and  _202
REMARK   83  A    between atoms: _202  and  _203
REMARK   84  A    between atoms: _202  and  _205
REMARK   85  A    between atoms: _205  and  _206
REMARK   86  A    between atoms: _206  and  _207
REMARK   87  A    between atoms: _210  and  _212
REMARK   88  A    between atoms: _212  and  _213
REMARK   89  A    between atoms: _212  and  _215
REMARK   90  A    between atoms: _215  and  _216
REMARK   91  A    between atoms: _216  and  _217
REMARK   92  A    between atoms: _217  and  _218
REMARK   93  A    between atoms: _227  and  _229
REMARK   94  A    between atoms: _229  and  _230
REMARK   95  A    between atoms: _229  and  _232
REMARK   96  A    between atoms: _235  and  _237
REMARK   97  A    between atoms: _237  and  _238
REMARK   98  A    between atoms: _237  and  _240
REMARK   99  A    between atoms: _240  and  _241
REMARK  100  A    between atoms: _244  and  _246
REMARK  101  A    between atoms: _246  and  _247
REMARK  102  A    between atoms: _246  and  _249
REMARK  103  A    between atoms: _252  and  _254
REMARK  104  A    between atoms: _254  and  _255
REMARK  105  A    between atoms: _254  and  _257
REMARK  106  A    between atoms: _257  and  _258
REMARK  107  A    between atoms: _261  and  _263
REMARK  108  A    between atoms: _263  and  _264
REMARK  109  A    between atoms: _267  and  _269
REMARK  110  A    between atoms: _269  and  _270
REMARK  111  A    between atoms: _269  and  _272
REMARK  112  A    between atoms: _272  and  _273
REMARK  113  A    between atoms: _278  and  _280
REMARK  114  A    between atoms: _280  and  _281
REMARK  115  A    between atoms: _280  and  _283
REMARK  116  A    between atoms: _283  and  _284
REMARK  117  A    between atoms: _284  and  _285
REMARK  118  A    between atoms: _288  and  _290
REMARK  119  A    between atoms: _290  and  _291
REMARK  120  A    between atoms: _290  and  _293
REMARK  121  A    between atoms: _293  and  _294
REMARK  122  A    between atoms: _299  and  _301
REMARK  123  A    between atoms: _301  and  _302
REMARK  124  A    between atoms: _301  and  _304
REMARK  125  A    between atoms: _304  and  _305
REMARK  126  A    between atoms: _315  and  _317
REMARK  127  A    between atoms: _317  and  _318
REMARK  128  A    between atoms: _317  and  _320
REMARK  129  A    between atoms: _320  and  _321
REMARK  130  A    between atoms: _324  and  _326
REMARK  131  A    between atoms: _326  and  _327
REMARK  132  A    between atoms: _326  and  _329
REMARK  133  A    between atoms: _329  and  _330
REMARK  134  A    between atoms: _335  and  _337
REMARK  135  A    between atoms: _337  and  _338
REMARK  136  A    between atoms: _337  and  _340
REMARK  137  A    between atoms: _340  and  _341
REMARK  138  A    between atoms: _341  and  _342
REMARK  139  A    between atoms: _345  and  _347
REMARK  140  A    between atoms: _347  and  _348
REMARK  141  A    between atoms: _351  and  _353
REMARK  142  A    between atoms: _353  and  _354
REMARK  143  A    between atoms: _353  and  _356
REMARK  144  A    between atoms: _356  and  _357
REMARK  145  A    between atoms: _359  and  _361
REMARK  146  A    between atoms: _361  and  _362
REMARK  147  A    between atoms: _361  and  _364
REMARK  148  A    between atoms: _364  and  _365
REMARK  149  A    between atoms: _365  and  _366
REMARK  150  A    between atoms: _369  and  _371
REMARK  151  A    between atoms: _371  and  _372
REMARK  152  A    between atoms: _371  and  _374
REMARK  153  A    between atoms: _374  and  _375
REMARK  154  A    between atoms: _380  and  _381
REMARK  155  A    between atoms: _383  and  _385
REMARK  156  A    between atoms: _385  and  _386
REMARK  157  A    between atoms: _385  and  _388
REMARK  158  A    between atoms: _388  and  _389
REMARK  159  A    between atoms: _392  and  _394
REMARK  160  A    between atoms: _394  and  _395
REMARK  161  A    between atoms: _394  and  _397
REMARK  162  A    between atoms: _397  and  _398
REMARK  163  A    between atoms: _403  and  _405
REMARK  164  A    between atoms: _405  and  _406
REMARK  165  A    between atoms: _405  and  _408
REMARK  166  A    between atoms: _408  and  _409
REMARK  167  A    between atoms: _412  and  _414
REMARK  168  A    between atoms: _414  and  _415
REMARK  169  A    between atoms: _414  and  _417
REMARK  170  A    between atoms: _417  and  _418
REMARK  171  A    between atoms: _423  and  _424
REMARK  172  A    between atoms: _426  and  _428
REMARK  173  A    between atoms: _428  and  _429
REMARK  174  A    between atoms: _428  and  _431
REMARK  175  A    between atoms: _431  and  _432
REMARK  176  A    between atoms: _432  and  _433
REMARK  177  A    between atoms: _433  and  _434
REMARK  178  A    between atoms: _443  and  _445
REMARK  179  A    between atoms: _445  and  _446
REMARK  180  A    between atoms: _445  and  _448
REMARK  181  A    between atoms: _451  and  _453
REMARK  182  A    between atoms: _453  and  _454
REMARK  183  A    between atoms: _457  and  _459
REMARK  184  A    between atoms: _459  and  _460
REMARK  185  A    between atoms: _459  and  _462
REMARK  186  A    between atoms: _465  and  _467
REMARK  187  A    between atoms: _467  and  _468
REMARK  188  A    between atoms: _467  and  _470
REMARK  189  A    between atoms: _470  and  _471
REMARK  190  A    between atoms: _473  and  _475
REMARK  191  A    between atoms: _475  and  _476
REMARK  192  A    between atoms: _475  and  _478
REMARK  193  A    between atoms: _478  and  _479
REMARK  194  A    between atoms: _479  and  _480
REMARK  195  A    between atoms: _483  and  _485
REMARK  196  A    between atoms: _485  and  _486
REMARK  197  A    between atoms: _485  and  _488
REMARK  198  A    between atoms: _488  and  _489
REMARK  199  A    between atoms: _492  and  _494
REMARK  200  A    between atoms: _494  and  _495
REMARK  201  A    between atoms: _494  and  _497
REMARK  202  A    between atoms: _497  and  _498
REMARK  203  A    between atoms: _504  and  _506
REMARK  204  A    between atoms: _506  and  _507
REMARK  205  A    between atoms: _506  and  _509
REMARK  206  A    between atoms: _509  and  _510
REMARK  207  A    between atoms: _513  and  _515
REMARK  208  A    between atoms: _515  and  _516
REMARK  209  A    between atoms: _519  and  _521
REMARK  210  A    between atoms: _521  and  _522
REMARK  211  A    between atoms: _521  and  _524
REMARK  212  A    between atoms: _524  and  _525
REMARK  213  A    between atoms: _530  and  _531
REMARK  214  A    between atoms: _533  and  _535
REMARK  215  A    between atoms: _535  and  _536
REMARK  216  A    between atoms: _535  and  _538
REMARK  217  A    between atoms: _538  and  _539
REMARK  218  A    between atoms: _541  and  _543
REMARK  219  A    between atoms: _543  and  _544
REMARK  220  A    between atoms: _543  and  _546
REMARK  221  A    between atoms: _546  and  _547
REMARK  222  A    between atoms: _550  and  _552
REMARK  223  A    between atoms: _552  and  _553
REMARK  224  A    between atoms: _552  and  _555
REMARK  225  A    between atoms: _555  and  _556
REMARK  226  A    between atoms: _558  and  _560
REMARK  227  A    between atoms: _560  and  _561
REMARK  228  A    between atoms: _560  and  _563
REMARK  229  A    between atoms: _563  and  _564
REMARK  230  A    between atoms: _567  and  _569
REMARK  231  A    between atoms: _569  and  _570
REMARK  232  A    between atoms: _569  and  _572
REMARK  233  A    between atoms: _572  and  _573
REMARK  234  A    between atoms: _575  and  _577
REMARK  235  A    between atoms: _577  and  _578
REMARK  236  A    between atoms: _577  and  _580
REMARK  237  A    between atoms: _580  and  _581
REMARK  238  A    between atoms: _584  and  _586
REMARK  239  A    between atoms: _586  and  _587
REMARK  240  A    between atoms: _586  and  _589
REMARK  241  A    between atoms: _589  and  _590
REMARK  242  A    between atoms: _595  and  _597
REMARK  243  A    between atoms: _597  and  _598
REMARK  244  A    between atoms: _597  and  _600
REMARK  245  A    between atoms: _600  and  _601
REMARK  246  A    between atoms: _603  and  _605
REMARK  247  A    between atoms: _605  and  _606
REMARK  248  A    between atoms: _605  and  _608
REMARK  249  A    between atoms: _608  and  _609
REMARK  250  A    between atoms: _615  and  _617
REMARK  251  A    between atoms: _617  and  _618
REMARK  252  A    between atoms: _617  and  _620
REMARK  253  A    between atoms: _620  and  _621
REMARK  254  A    between atoms: _623  and  _625
REMARK  255  A    between atoms: _625  and  _626
REMARK  256  A    between atoms: _625  and  _628
REMARK  257  A    between atoms: _628  and  _629
REMARK  258  A    between atoms: _635  and  _637
REMARK  259  A    between atoms: _637  and  _638
REMARK  260  A    between atoms: _637  and  _640
REMARK  261  A    between atoms: _640  and  _641
REMARK  262  A    between atoms: _643  and  _645
REMARK  263  A    between atoms: _645  and  _646
REMARK  264  A    between atoms: _645  and  _648
REMARK  265  A    between atoms: _648  and  _649
REMARK  266  A    between atoms: _654  and  _656
REMARK  267  A    between atoms: _656  and  _657
REMARK  268  A    between atoms: _656  and  _659
REMARK  269  A    between atoms: _659  and  _660
REMARK  270  A    between atoms: _663  and  _665
REMARK  271  A    between atoms: _665  and  _666
REMARK  272  A    between atoms: _665  and  _668
REMARK  273  A    between atoms: _668  and  _669
REMARK  274  A    between atoms: _672  and  _674
REMARK  275  A    between atoms: _674  and  _675
REMARK  276  A    between atoms: _674  and  _677
REMARK  277  A    between atoms: _677  and  _678
REMARK  278  A    between atoms: _678  and  _679
REMARK  279  A    between atoms: _684  and  _686
REMARK  280  A    between atoms: _686  and  _687
REMARK  281  A    between atoms: _690  and  _692
REMARK  282  A    between atoms: _692  and  _693
REMARK  283  A    between atoms: _692  and  _695
REMARK  284  A    between atoms: _698  and  _700
REMARK  285  A    between atoms: _700  and  _701
REMARK  286  A    between atoms: _700  and  _703
REMARK  287  A    between atoms: _703  and  _704
REMARK  288  A    between atoms: _707  and  _709
REMARK  289  A    between atoms: _709  and  _710
REMARK  290  A    between atoms: _709  and  _712
REMARK  291  A    between atoms: _712  and  _713
REMARK  292  A    between atoms: _713  and  _714
REMARK  293  A    between atoms: _714  and  _715
REMARK  294  A    between atoms: _724  and  _726
REMARK  295  A    between atoms: _726  and  _727
REMARK  296  A    between atoms: _726  and  _729
REMARK  297  A    between atoms: _729  and  _730
REMARK  298  A    between atoms: _730  and  _731
REMARK  299  A    between atoms: _731  and  _732
REMARK  300  A    between atoms: _732  and  _733
REMARK                            x       y       z     vdW  Elec       q    Type
REMARK                         _______ _______ _______ _____ _____    ______ ____
ROOT
ATOM      1  O   HOH     1      92.037  13.337  14.659  0.00  0.00    +0.000 OA
ENDROOT
TORSDOF 0
REMARK  Name = ../refined-set-2016/4fys/4fys_pocket.pdb
REMARK  300 active torsions:
REMARK  status: ('A' for Active; 'I' for Inactive)
REMARK    1  A    between atoms: _1  and  _3
REMARK    2  A    between atoms: _3  and  _4
REMARK    3  A    between atoms: _3  and  _6
REMARK    4  A    between atoms: _6  and  _7
REMARK    5  A    between atoms: _7  and  _8
REMARK    6  A    between atoms: _13  and  _15
REMARK    7  A    between atoms: _15  and  _16
REMARK    8  A    between atoms: _15  and  _18
REMARK    9  A    between atoms: _18  and  _19
REMARK   10  A    between atoms: _19  and  _20
REMARK   11  A    between atoms: _22  and  _24
REMARK   12  A    between atoms: _24  and  _25
REMARK   13  A    between atoms: _24  and  _27
REMARK   14  A    between atoms: _27  and  _28
REMARK   15  A    between atoms: _28  and  _29
REMARK   16  A    between atoms: _34  and  _36
REMARK   17  A    between atoms: _36  and  _37
REMARK   18  A    between atoms: _40  and  _42
REMARK   19  A    between atoms: _42  and  _43
REMARK   20  A    between atoms: _42  and  _45
REMARK   21  A    between atoms: _45  and  _46
REMARK   22  A    between atoms: _51  and  _52
REMARK   23  A    between atoms: _54  and  _56
REMARK   24  A    between atoms: _56  and  _57
REMARK   25  A    between atoms: _56  and  _59
REMARK   26  A    between atoms: _59  and  _60
REMARK   27  A    between atoms: _63  and  _65
REMARK   28  A    between atoms: _65  and  _66
REMARK   29  A    between atoms: _65  and  _68
REMARK   30  A    between atoms: _68  and  _69
REMARK   31  A    between atoms: _75  and  _77
REMARK   32  A    between atoms: _77  and  _78
REMARK   33  A    between atoms: _77  and  _80
REMARK   34  A    between atoms: _80  and  _81
REMARK   35  A    between atoms: _86  and  _88
REMARK   36  A    between atoms: _88  and  _89
REMARK   37  A    between atoms: _92  and  _94
REMARK   38  A    between atoms: _94  and  _95
REMARK   39  A    between atoms: _97  and  _99
REMARK   40  A    between atoms: _99  and  _100
REMARK   41  A    between atoms: _103  and  _105
REMARK   42  A    between atoms: _105  and  _106
REMARK   43  A    between atoms: _105  and  _108
REMARK   44  A    between atoms: _108  and  _109
REMARK   45  A    between atoms: _109  and  _110
REMARK   46  A    between atoms: _112  and  _114
REMARK   47  A    between atoms: _114  and  _115
REMARK   48  A    between atoms: _114  and  _117
REMARK   49  A    between atoms: _117  and  _118
REMARK   50  A    between atoms: _118  and  _119
REMARK   51  A    between atoms: _122  and  _124
REMARK   52  A    between atoms: _124  and  _125
REMARK   53  A    between atoms: _124  and  _127
REMARK   54  A    between atoms: _127  and  _128
REMARK   55  A    between atoms: _133  and  _135
REMARK   56  A    between atoms: _135  and  _136
REMARK   57  A    between atoms: _135  and  _138
REMARK   58  A    between atoms: _138  and  _139
REMARK   59  A    between atoms: _142  and  _144
REMARK   60  A    between atoms: _144  and  _145
REMARK   61  A    between atoms: _144  and  _147
REMARK   62  A    between atoms: _147  and  _148
REMARK   63  A    between atoms: _153  and  _154
REMARK   64  A    between atoms: _156  and  _158
REMARK   65  A    between atoms: _158  and  _159
REMARK   66  A    between atoms: _158  and  _161
REMARK   67  A    between atoms: _161  and  _162
REMARK   68  A    between atoms: _162  and  _163
REMARK   69  A    between atoms: _163  and  _164
REMARK   70  A    between atoms: _173  and  _175
REMARK   71  A    between atoms: _175  and  _176
REMARK   72  A    between atoms: _175  and  _178
REMARK   73  A    between atoms: _178  and  _179
REMARK   74  A    between atoms: _184  and  _186
REMARK   75  A    between atoms: _186  and  _187
REMARK   76  A    between atoms: _186  and  _189
REMARK   77  A    between atoms: _189  and  _190
REMARK   78  A    between atoms: _192  and  _194
REMARK   79  A    between atoms: _194  and  _195
REMARK   80  A    between atoms: _194  and  _197
REMARK   81  A    between atoms: _197  and  _198
REMARK   82  A    between atoms: _200  and  _202
REMARK   83  A    between atoms: _202  and  _203
REMARK   84  A    between atoms: _202  and  _205
REMARK   85  A    between atoms: _205  and  _206
REMARK   86  A    between atoms: _206  and  _207
REMARK   87  A    between atoms: _210  and  _212
REMARK   88  A    between atoms: _212  and  _213
REMARK   89  A    between atoms: _212  and  _215
REMARK   90  A    between atoms: _215  and  _216
REMARK   91  A    between atoms: _216  and  _217
REMARK   92  A    between atoms: _217  and  _218
REMARK   93  A    between atoms: _227  and  _229
REMARK   94  A    between atoms: _229  and  _230
REMARK   95  A    between atoms: _229  and  _232
REMARK   96  A    between atoms: _235  and  _237
REMARK   97  A    between atoms: _237  and  _238
REMARK   98  A    between atoms: _237  and  _240
REMARK   99  A    between atoms: _240  and  _241
REMARK  100  A    between atoms: _244  and  _246
REMARK  101  A    between atoms: _246  and  _247
REMARK  102  A    between atoms: _246  and  _249
REMARK  103  A    between atoms: _252  and  _254
REMARK  104  A    between atoms: _254  and  _255
REMARK  105  A    between atoms: _254  and  _257
REMARK  106  A    between atoms: _257  and  _258
REMARK  107  A    between atoms: _261  and  _263
REMARK  108  A    between atoms: _263  and  _264
REMARK  109  A    between atoms: _267  and  _269
REMARK  110  A    between atoms: _269  and  _270
REMARK  111  A    between atoms: _269  and  _272
REMARK  112  A    between atoms: _272  and  _273
REMARK  113  A    between atoms: _278  and  _280
REMARK  114  A    between atoms: _280  and  _281
REMARK  115  A    between atoms: _280  and  _283
REMARK  116  A    between atoms: _283  and  _284
REMARK  117  A    between atoms: _284  and  _285
REMARK  118  A    between atoms: _288  and  _290
REMARK  119  A    between atoms: _290  and  _291
REMARK  120  A    between atoms: _290  and  _293
REMARK  121  A    between atoms: _293  and  _294
REMARK  122  A    between atoms: _299  and  _301
REMARK  123  A    between atoms: _301  and  _302
REMARK  124  A    between atoms: _301  and  _304
REMARK  125  A    between atoms: _304  and  _305
REMARK  126  A    between atoms: _315  and  _317
REMARK  127  A    between atoms: _317  and  _318
REMARK  128  A    between atoms: _317  and  _320
REMARK  129  A    between atoms: _320  and  _321
REMARK  130  A    between atoms: _324  and  _326
REMARK  131  A    between atoms: _326  and  _327
REMARK  132  A    between atoms: _326  and  _329
REMARK  133  A    between atoms: _329  and  _330
REMARK  134  A    between atoms: _335  and  _337
REMARK  135  A    between atoms: _337  and  _338
REMARK  136  A    between atoms: _337  and  _340
REMARK  137  A    between atoms: _340  and  _341
REMARK  138  A    between atoms: _341  and  _342
REMARK  139  A    between atoms: _345  and  _347
REMARK  140  A    between atoms: _347  and  _348
REMARK  141  A    between atoms: _351  and  _353
REMARK  142  A    between atoms: _353  and  _354
REMARK  143  A    between atoms: _353  and  _356
REMARK  144  A    between atoms: _356  and  _357
REMARK  145  A    between atoms: _359  and  _361
REMARK  146  A    between atoms: _361  and  _362
REMARK  147  A    between atoms: _361  and  _364
REMARK  148  A    between atoms: _364  and  _365
REMARK  149  A    between atoms: _365  and  _366
REMARK  150  A    between atoms: _369  and  _371
REMARK  151  A    between atoms: _371  and  _372
REMARK  152  A    between atoms: _371  and  _374
REMARK  153  A    between atoms: _374  and  _375
REMARK  154  A    between atoms: _380  and  _381
REMARK  155  A    between atoms: _383  and  _385
REMARK  156  A    between atoms: _385  and  _386
REMARK  157  A    between atoms: _385  and  _388
REMARK  158  A    between atoms: _388  and  _389
REMARK  159  A    between atoms: _392  and  _394
REMARK  160  A    between atoms: _394  and  _395
REMARK  161  A    between atoms: _394  and  _397
REMARK  162  A    between atoms: _397  and  _398
REMARK  163  A    between atoms: _403  and  _405
REMARK  164  A    between atoms: _405  and  _406
REMARK  165  A    between atoms: _405  and  _408
REMARK  166  A    between atoms: _408  and  _409
REMARK  167  A    between atoms: _412  and  _414
REMARK  168  A    between atoms: _414  and  _415
REMARK  169  A    between atoms: _414  and  _417
REMARK  170  A    between atoms: _417  and  _418
REMARK  171  A    between atoms: _423  and  _424
REMARK  172  A    between atoms: _426  and  _428
REMARK  173  A    between atoms: _428  and  _429
REMARK  174  A    between atoms: _428  and  _431
REMARK  175  A    between atoms: _431  and  _432
REMARK  176  A    between atoms: _432  and  _433
REMARK  177  A    between atoms: _433  and  _434
REMARK  178  A    between atoms: _443  and  _445
REMARK  179  A    between atoms: _445  and  _446
REMARK  180  A    between atoms: _445  and  _448
REMARK  181  A    between atoms: _451  and  _453
REMARK  182  A    between atoms: _453  and  _454
REMARK  183  A    between atoms: _457  and  _459
REMARK  184  A    between atoms: _459  and  _460
REMARK  185  A    between atoms: _459  and  _462
REMARK  186  A    between atoms: _465  and  _467
REMARK  187  A    between atoms: _467  and  _468
REMARK  188  A    between atoms: _467  and  _470
REMARK  189  A    between atoms: _470  and  _471
REMARK  190  A    between atoms: _473  and  _475
REMARK  191  A    between atoms: _475  and  _476
REMARK  192  A    between atoms: _475  and  _478
REMARK  193  A    between atoms: _478  and  _479
REMARK  194  A    between atoms: _479  and  _480
REMARK  195  A    between atoms: _483  and  _485
REMARK  196  A    between atoms: _485  and  _486
REMARK  197  A    between atoms: _485  and  _488
REMARK  198  A    between atoms: _488  and  _489
REMARK  199  A    between atoms: _492  and  _494
REMARK  200  A    between atoms: _494  and  _495
REMARK  201  A    between atoms: _494  and  _497
REMARK  202  A    between atoms: _497  and  _498
REMARK  203  A    between atoms: _504  and  _506
REMARK  204  A    between atoms: _506  and  _507
REMARK  205  A    between atoms: _506  and  _509
REMARK  206  A    between atoms: _509  and  _510
REMARK  207  A    between atoms: _513  and  _515
REMARK  208  A    between atoms: _515  and  _516
REMARK  209  A    between atoms: _519  and  _521
REMARK  210  A    between atoms: _521  and  _522
REMARK  211  A    between atoms: _521  and  _524
REMARK  212  A    between atoms: _524  and  _525
REMARK  213  A    between atoms: _530  and  _531
REMARK  214  A    between atoms: _533  and  _535
REMARK  215  A    between atoms: _535  and  _536
REMARK  216  A    between atoms: _535  and  _538
REMARK  217  A    between atoms: _538  and  _539
REMARK  218  A    between atoms: _541  and  _543
REMARK  219  A    between atoms: _543  and  _544
REMARK  220  A    between atoms: _543  and  _546
REMARK  221  A    between atoms: _546  and  _547
REMARK  222  A    between atoms: _550  and  _552
REMARK  223  A    between atoms: _552  and  _553
REMARK  224  A    between atoms: _552  and  _555
REMARK  225  A    between atoms: _555  and  _556
REMARK  226  A    between atoms: _558  and  _560
REMARK  227  A    between atoms: _560  and  _561
REMARK  228  A    between atoms: _560  and  _563
REMARK  229  A    between atoms: _563  and  _564
REMARK  230  A    between atoms: _567  and  _569
REMARK  231  A    between atoms: _569  and  _570
REMARK  232  A    between atoms: _569  and  _572
REMARK  233  A    between atoms: _572  and  _573
REMARK  234  A    between atoms: _575  and  _577
REMARK  235  A    between atoms: _577  and  _578
REMARK  236  A    between atoms: _577  and  _580
REMARK  237  A    between atoms: _580  and  _581
REMARK  238  A    between atoms: _584  and  _586
REMARK  239  A    between atoms: _586  and  _587
REMARK  240  A    between atoms: _586  and  _589
REMARK  241  A    between atoms: _589  and  _590
REMARK  242  A    between atoms: _595  and  _597
REMARK  243  A    between atoms: _597  and  _598
REMARK  244  A    between atoms: _597  and  _600
REMARK  245  A    between atoms: _600  and  _601
REMARK  246  A    between atoms: _603  and  _605
REMARK  247  A    between atoms: _605  and  _606
REMARK  248  A    between atoms: _605  and  _608
REMARK  249  A    between atoms: _608  and  _609
REMARK  250  A    between atoms: _615  and  _617
REMARK  251  A    between atoms: _617  and  _618
REMARK  252  A    between atoms: _617  and  _620
REMARK  253  A    between atoms: _620  and  _621
REMARK  254  A    between atoms: _623  and  _625
REMARK  255  A    between atoms: _625  and  _626
REMARK  256  A    between atoms: _625  and  _628
REMARK  257  A    between atoms: _628  and  _629
REMARK  258  A    between atoms: _635  and  _637
REMARK  259  A    between atoms: _637  and  _638
REMARK  260  A    between atoms: _637  and  _640
REMARK  261  A    between atoms: _640  and  _641
REMARK  262  A    between atoms: _643  and  _645
REMARK  263  A    between atoms: _645  and  _646
REMARK  264  A    between atoms: _645  and  _648
REMARK  265  A    between atoms: _648  and  _649
REMARK  266  A    between atoms: _654  and  _656
REMARK  267  A    between atoms: _656  and  _657
REMARK  268  A    between atoms: _656  and  _659
REMARK  269  A    between atoms: _659  and  _660
REMARK  270  A    between atoms: _663  and  _665
REMARK  271  A    between atoms: _665  and  _666
REMARK  272  A    between atoms: _665  and  _668
REMARK  273  A    between atoms: _668  and  _669
REMARK  274  A    between atoms: _672  and  _674
REMARK  275  A    between atoms: _674  and  _675
REMARK  276  A    between atoms: _674  and  _677
REMARK  277  A    between atoms: _677  and  _678
REMARK  278  A    between atoms: _678  and  _679
REMARK  279  A    between atoms: _684  and  _686
REMARK  280  A    between atoms: _686  and  _687
REMARK  281  A    between atoms: _690  and  _692
REMARK  282  A    between atoms: _692  and  _693
REMARK  283  A    between atoms: _692  and  _695
REMARK  284  A    between atoms: _698  and  _700
REMARK  285  A    between atoms: _700  and  _701
REMARK  286  A    between atoms: _700  and  _703
REMARK  287  A    between atoms: _703  and  _704
REMARK  288  A    between atoms: _707  and  _709
REMARK  289  A    between atoms: _709  and  _710
REMARK  290  A    between atoms: _709  and  _712
REMARK  291  A    between atoms: _712  and  _713
REMARK  292  A    between atoms: _713  and  _714
REMARK  293  A    between atoms: _714  and  _715
REMARK  294  A    between atoms: _724  and  _726
REMARK  295  A    between atoms: _726  and  _727
REMARK  296  A    between atoms: _726  and  _729
REMARK  297  A    between atoms: _729  and  _730
REMARK  298  A    between atoms: _730  and  _731
REMARK  299  A    between atoms: _731  and  _732
REMARK  300  A    between atoms: _732  and  _733
REMARK                            x       y       z     vdW  Elec       q    Type
REMARK                         _______ _______ _______ _____ _____    ______ ____
ROOT
ATOM      1  O   HOH     1      89.503  23.945  14.367  0.00  0.00    +0.000 OA
ENDROOT
TORSDOF 0
REMARK  Name = ../refined-set-2016/4fys/4fys_pocket.pdb
REMARK  300 active torsions:
REMARK  status: ('A' for Active; 'I' for Inactive)
REMARK    1  A    between atoms: _1  and  _3
REMARK    2  A    between atoms: _3  and  _4
REMARK    3  A    between atoms: _3  and  _6
REMARK    4  A    between atoms: _6  and  _7
REMARK    5  A    between atoms: _7  and  _8
REMARK    6  A    between atoms: _13  and  _15
REMARK    7  A    between atoms: _15  and  _16
REMARK    8  A    between atoms: _15  and  _18
REMARK    9  A    between atoms: _18  and  _19
REMARK   10  A    between atoms: _19  and  _20
REMARK   11  A    between atoms: _22  and  _24
REMARK   12  A    between atoms: _24  and  _25
REMARK   13  A    between atoms: _24  and  _27
REMARK   14  A    between atoms: _27  and  _28
REMARK   15  A    between atoms: _28  and  _29
REMARK   16  A    between atoms: _34  and  _36
REMARK   17  A    between atoms: _36  and  _37
REMARK   18  A    between atoms: _40  and  _42
REMARK   19  A    between atoms: _42  and  _43
REMARK   20  A    between atoms: _42  and  _45
REMARK   21  A    between atoms: _45  and  _46
REMARK   22  A    between atoms: _51  and  _52
REMARK   23  A    between atoms: _54  and  _56
REMARK   24  A    between atoms: _56  and  _57
REMARK   25  A    between atoms: _56  and  _59
REMARK   26  A    between atoms: _59  and  _60
REMARK   27  A    between atoms: _63  and  _65
REMARK   28  A    between atoms: _65  and  _66
REMARK   29  A    between atoms: _65  and  _68
REMARK   30  A    between atoms: _68  and  _69
REMARK   31  A    between atoms: _75  and  _77
REMARK   32  A    between atoms: _77  and  _78
REMARK   33  A    between atoms: _77  and  _80
REMARK   34  A    between atoms: _80  and  _81
REMARK   35  A    between atoms: _86  and  _88
REMARK   36  A    between atoms: _88  and  _89
REMARK   37  A    between atoms: _92  and  _94
REMARK   38  A    between atoms: _94  and  _95
REMARK   39  A    between atoms: _97  and  _99
REMARK   40  A    between atoms: _99  and  _100
REMARK   41  A    between atoms: _103  and  _105
REMARK   42  A    between atoms: _105  and  _106
REMARK   43  A    between atoms: _105  and  _108
REMARK   44  A    between atoms: _108  and  _109
REMARK   45  A    between atoms: _109  and  _110
REMARK   46  A    between atoms: _112  and  _114
REMARK   47  A    between atoms: _114  and  _115
REMARK   48  A    between atoms: _114  and  _117
REMARK   49  A    between atoms: _117  and  _118
REMARK   50  A    between atoms: _118  and  _119
REMARK   51  A    between atoms: _122  and  _124
REMARK   52  A    between atoms: _124  and  _125
REMARK   53  A    between atoms: _124  and  _127
REMARK   54  A    between atoms: _127  and  _128
REMARK   55  A    between atoms: _133  and  _135
REMARK   56  A    between atoms: _135  and  _136
REMARK   57  A    between atoms: _135  and  _138
REMARK   58  A    between atoms: _138  and  _139
REMARK   59  A    between atoms: _142  and  _144
REMARK   60  A    between atoms: _144  and  _145
REMARK   61  A    between atoms: _144  and  _147
REMARK   62  A    between atoms: _147  and  _148
REMARK   63  A    between atoms: _153  and  _154
REMARK   64  A    between atoms: _156  and  _158
REMARK   65  A    between atoms: _158  and  _159
REMARK   66  A    between atoms: _158  and  _161
REMARK   67  A    between atoms: _161  and  _162
REMARK   68  A    between atoms: _162  and  _163
REMARK   69  A    between atoms: _163  and  _164
REMARK   70  A    between atoms: _173  and  _175
REMARK   71  A    between atoms: _175  and  _176
REMARK   72  A    between atoms: _175  and  _178
REMARK   73  A    between atoms: _178  and  _179
REMARK   74  A    between atoms: _184  and  _186
REMARK   75  A    between atoms: _186  and  _187
REMARK   76  A    between atoms: _186  and  _189
REMARK   77  A    between atoms: _189  and  _190
REMARK   78  A    between atoms: _192  and  _194
REMARK   79  A    between atoms: _194  and  _195
REMARK   80  A    between atoms: _194  and  _197
REMARK   81  A    between atoms: _197  and  _198
REMARK   82  A    between atoms: _200  and  _202
REMARK   83  A    between atoms: _202  and  _203
REMARK   84  A    between atoms: _202  and  _205
REMARK   85  A    between atoms: _205  and  _206
REMARK   86  A    between atoms: _206  and  _207
REMARK   87  A    between atoms: _210  and  _212
REMARK   88  A    between atoms: _212  and  _213
REMARK   89  A    between atoms: _212  and  _215
REMARK   90  A    between atoms: _215  and  _216
REMARK   91  A    between atoms: _216  and  _217
REMARK   92  A    between atoms: _217  and  _218
REMARK   93  A    between atoms: _227  and  _229
REMARK   94  A    between atoms: _229  and  _230
REMARK   95  A    between atoms: _229  and  _232
REMARK   96  A    between atoms: _235  and  _237
REMARK   97  A    between atoms: _237  and  _238
REMARK   98  A    between atoms: _237  and  _240
REMARK   99  A    between atoms: _240  and  _241
REMARK  100  A    between atoms: _244  and  _246
REMARK  101  A    between atoms: _246  and  _247
REMARK  102  A    between atoms: _246  and  _249
REMARK  103  A    between atoms: _252  and  _254
REMARK  104  A    between atoms: _254  and  _255
REMARK  105  A    between atoms: _254  and  _257
REMARK  106  A    between atoms: _257  and  _258
REMARK  107  A    between atoms: _261  and  _263
REMARK  108  A    between atoms: _263  and  _264
REMARK  109  A    between atoms: _267  and  _269
REMARK  110  A    between atoms: _269  and  _270
REMARK  111  A    between atoms: _269  and  _272
REMARK  112  A    between atoms: _272  and  _273
REMARK  113  A    between atoms: _278  and  _280
REMARK  114  A    between atoms: _280  and  _281
REMARK  115  A    between atoms: _280  and  _283
REMARK  116  A    between atoms: _283  and  _284
REMARK  117  A    between atoms: _284  and  _285
REMARK  118  A    between atoms: _288  and  _290
REMARK  119  A    between atoms: _290  and  _291
REMARK  120  A    between atoms: _290  and  _293
REMARK  121  A    between atoms: _293  and  _294
REMARK  122  A    between atoms: _299  and  _301
REMARK  123  A    between atoms: _301  and  _302
REMARK  124  A    between atoms: _301  and  _304
REMARK  125  A    between atoms: _304  and  _305
REMARK  126  A    between atoms: _315  and  _317
REMARK  127  A    between atoms: _317  and  _318
REMARK  128  A    between atoms: _317  and  _320
REMARK  129  A    between atoms: _320  and  _321
REMARK  130  A    between atoms: _324  and  _326
REMARK  131  A    between atoms: _326  and  _327
REMARK  132  A    between atoms: _326  and  _329
REMARK  133  A    between atoms: _329  and  _330
REMARK  134  A    between atoms: _335  and  _337
REMARK  135  A    between atoms: _337  and  _338
REMARK  136  A    between atoms: _337  and  _340
REMARK  137  A    between atoms: _340  and  _341
REMARK  138  A    between atoms: _341  and  _342
REMARK  139  A    between atoms: _345  and  _347
REMARK  140  A    between atoms: _347  and  _348
REMARK  141  A    between atoms: _351  and  _353
REMARK  142  A    between atoms: _353  and  _354
REMARK  143  A    between atoms: _353  and  _356
REMARK  144  A    between atoms: _356  and  _357
REMARK  145  A    between atoms: _359  and  _361
REMARK  146  A    between atoms: _361  and  _362
REMARK  147  A    between atoms: _361  and  _364
REMARK  148  A    between atoms: _364  and  _365
REMARK  149  A    between atoms: _365  and  _366
REMARK  150  A    between atoms: _369  and  _371
REMARK  151  A    between atoms: _371  and  _372
REMARK  152  A    between atoms: _371  and  _374
REMARK  153  A    between atoms: _374  and  _375
REMARK  154  A    between atoms: _380  and  _381
REMARK  155  A    between atoms: _383  and  _385
REMARK  156  A    between atoms: _385  and  _386
REMARK  157  A    between atoms: _385  and  _388
REMARK  158  A    between atoms: _388  and  _389
REMARK  159  A    between atoms: _392  and  _394
REMARK  160  A    between atoms: _394  and  _395
REMARK  161  A    between atoms: _394  and  _397
REMARK  162  A    between atoms: _397  and  _398
REMARK  163  A    between atoms: _403  and  _405
REMARK  164  A    between atoms: _405  and  _406
REMARK  165  A    between atoms: _405  and  _408
REMARK  166  A    between atoms: _408  and  _409
REMARK  167  A    between atoms: _412  and  _414
REMARK  168  A    between atoms: _414  and  _415
REMARK  169  A    between atoms: _414  and  _417
REMARK  170  A    between atoms: _417  and  _418
REMARK  171  A    between atoms: _423  and  _424
REMARK  172  A    between atoms: _426  and  _428
REMARK  173  A    between atoms: _428  and  _429
REMARK  174  A    between atoms: _428  and  _431
REMARK  175  A    between atoms: _431  and  _432
REMARK  176  A    between atoms: _432  and  _433
REMARK  177  A    between atoms: _433  and  _434
REMARK  178  A    between atoms: _443  and  _445
REMARK  179  A    between atoms: _445  and  _446
REMARK  180  A    between atoms: _445  and  _448
REMARK  181  A    between atoms: _451  and  _453
REMARK  182  A    between atoms: _453  and  _454
REMARK  183  A    between atoms: _457  and  _459
REMARK  184  A    between atoms: _459  and  _460
REMARK  185  A    between atoms: _459  and  _462
REMARK  186  A    between atoms: _465  and  _467
REMARK  187  A    between atoms: _467  and  _468
REMARK  188  A    between atoms: _467  and  _470
REMARK  189  A    between atoms: _470  and  _471
REMARK  190  A    between atoms: _473  and  _475
REMARK  191  A    between atoms: _475  and  _476
REMARK  192  A    between atoms: _475  and  _478
REMARK  193  A    between atoms: _478  and  _479
REMARK  194  A    between atoms: _479  and  _480
REMARK  195  A    between atoms: _483  and  _485
REMARK  196  A    between atoms: _485  and  _486
REMARK  197  A    between atoms: _485  and  _488
REMARK  198  A    between atoms: _488  and  _489
REMARK  199  A    between atoms: _492  and  _494
REMARK  200  A    between atoms: _494  and  _495
REMARK  201  A    between atoms: _494  and  _497
REMARK  202  A    between atoms: _497  and  _498
REMARK  203  A    between atoms: _504  and  _506
REMARK  204  A    between atoms: _506  and  _507
REMARK  205  A    between atoms: _506  and  _509
REMARK  206  A    between atoms: _509  and  _510
REMARK  207  A    between atoms: _513  and  _515
REMARK  208  A    between atoms: _515  and  _516
REMARK  209  A    between atoms: _519  and  _521
REMARK  210  A    between atoms: _521  and  _522
REMARK  211  A    between atoms: _521  and  _524
REMARK  212  A    between atoms: _524  and  _525
REMARK  213  A    between atoms: _530  and  _531
REMARK  214  A    between atoms: _533  and  _535
REMARK  215  A    between atoms: _535  and  _536
REMARK  216  A    between atoms: _535  and  _538
REMARK  217  A    between atoms: _538  and  _539
REMARK  218  A    between atoms: _541  and  _543
REMARK  219  A    between atoms: _543  and  _544
REMARK  220  A    between atoms: _543  and  _546
REMARK  221  A    between atoms: _546  and  _547
REMARK  222  A    between atoms: _550  and  _552
REMARK  223  A    between atoms: _552  and  _553
REMARK  224  A    between atoms: _552  and  _555
REMARK  225  A    between atoms: _555  and  _556
REMARK  226  A    between atoms: _558  and  _560
REMARK  227  A    between atoms: _560  and  _561
REMARK  228  A    between atoms: _560  and  _563
REMARK  229  A    between atoms: _563  and  _564
REMARK  230  A    between atoms: _567  and  _569
REMARK  231  A    between atoms: _569  and  _570
REMARK  232  A    between atoms: _569  and  _572
REMARK  233  A    between atoms: _572  and  _573
REMARK  234  A    between atoms: _575  and  _577
REMARK  235  A    between atoms: _577  and  _578
REMARK  236  A    between atoms: _577  and  _580
REMARK  237  A    between atoms: _580  and  _581
REMARK  238  A    between atoms: _584  and  _586
REMARK  239  A    between atoms: _586  and  _587
REMARK  240  A    between atoms: _586  and  _589
REMARK  241  A    between atoms: _589  and  _590
REMARK  242  A    between atoms: _595  and  _597
REMARK  243  A    between atoms: _597  and  _598
REMARK  244  A    between atoms: _597  and  _600
REMARK  245  A    between atoms: _600  and  _601
REMARK  246  A    between atoms: _603  and  _605
REMARK  247  A    between atoms: _605  and  _606
REMARK  248  A    between atoms: _605  and  _608
REMARK  249  A    between atoms: _608  and  _609
REMARK  250  A    between atoms: _615  and  _617
REMARK  251  A    between atoms: _617  and  _618
REMARK  252  A    between atoms: _617  and  _620
REMARK  253  A    between atoms: _620  and  _621
REMARK  254  A    between atoms: _623  and  _625
REMARK  255  A    between atoms: _625  and  _626
REMARK  256  A    between atoms: _625  and  _628
REMARK  257  A    between atoms: _628  and  _629
REMARK  258  A    between atoms: _635  and  _637
REMARK  259  A    between atoms: _637  and  _638
REMARK  260  A    between atoms: _637  and  _640
REMARK  261  A    between atoms: _640  and  _641
REMARK  262  A    between atoms: _643  and  _645
REMARK  263  A    between atoms: _645  and  _646
REMARK  264  A    between atoms: _645  and  _648
REMARK  265  A    between atoms: _648  and  _649
REMARK  266  A    between atoms: _654  and  _656
REMARK  267  A    between atoms: _656  and  _657
REMARK  268  A    between atoms: _656  and  _659
REMARK  269  A    between atoms: _659  and  _660
REMARK  270  A    between atoms: _663  and  _665
REMARK  271  A    between atoms: _665  and  _666
REMARK  272  A    between atoms: _665  and  _668
REMARK  273  A    between atoms: _668  and  _669
REMARK  274  A    between atoms: _672  and  _674
REMARK  275  A    between atoms: _674  and  _675
REMARK  276  A    between atoms: _674  and  _677
REMARK  277  A    between atoms: _677  and  _678
REMARK  278  A    between atoms: _678  and  _679
REMARK  279  A    between atoms: _684  and  _686
REMARK  280  A    between atoms: _686  and  _687
REMARK  281  A    between atoms: _690  and  _692
REMARK  282  A    between atoms: _692  and  _693
REMARK  283  A    between atoms: _692  and  _695
REMARK  284  A    between atoms: _698  and  _700
REMARK  285  A    between atoms: _700  and  _701
REMARK  286  A    between atoms: _700  and  _703
REMARK  287  A    between atoms: _703  and  _704
REMARK  288  A    between atoms: _707  and  _709
REMARK  289  A    between atoms: _709  and  _710
REMARK  290  A    between atoms: _709  and  _712
REMARK  291  A    between atoms: _712  and  _713
REMARK  292  A    between atoms: _713  and  _714
REMARK  293  A    between atoms: _714  and  _715
REMARK  294  A    between atoms: _724  and  _726
REMARK  295  A    between atoms: _726  and  _727
REMARK  296  A    between atoms: _726  and  _729
REMARK  297  A    between atoms: _729  and  _730
REMARK  298  A    between atoms: _730  and  _731
REMARK  299  A    between atoms: _731  and  _732
REMARK  300  A    between atoms: _732  and  _733
REMARK                            x       y       z     vdW  Elec       q    Type
REMARK                         _______ _______ _______ _____ _____    ______ ____
ROOT
ATOM      1  O   HOH     1     103.368  13.994  20.273  0.00  0.00    +0.000 OA
ENDROOT
TORSDOF 0
REMARK  Name = ../refined-set-2016/4fys/4fys_pocket.pdb
REMARK  300 active torsions:
REMARK  status: ('A' for Active; 'I' for Inactive)
REMARK    1  A    between atoms: _1  and  _3
REMARK    2  A    between atoms: _3  and  _4
REMARK    3  A    between atoms: _3  and  _6
REMARK    4  A    between atoms: _6  and  _7
REMARK    5  A    between atoms: _7  and  _8
REMARK    6  A    between atoms: _13  and  _15
REMARK    7  A    between atoms: _15  and  _16
REMARK    8  A    between atoms: _15  and  _18
REMARK    9  A    between atoms: _18  and  _19
REMARK   10  A    between atoms: _19  and  _20
REMARK   11  A    between atoms: _22  and  _24
REMARK   12  A    between atoms: _24  and  _25
REMARK   13  A    between atoms: _24  and  _27
REMARK   14  A    between atoms: _27  and  _28
REMARK   15  A    between atoms: _28  and  _29
REMARK   16  A    between atoms: _34  and  _36
REMARK   17  A    between atoms: _36  and  _37
REMARK   18  A    between atoms: _40  and  _42
REMARK   19  A    between atoms: _42  and  _43
REMARK   20  A    between atoms: _42  and  _45
REMARK   21  A    between atoms: _45  and  _46
REMARK   22  A    between atoms: _51  and  _52
REMARK   23  A    between atoms: _54  and  _56
REMARK   24  A    between atoms: _56  and  _57
REMARK   25  A    between atoms: _56  and  _59
REMARK   26  A    between atoms: _59  and  _60
REMARK   27  A    between atoms: _63  and  _65
REMARK   28  A    between atoms: _65  and  _66
REMARK   29  A    between atoms: _65  and  _68
REMARK   30  A    between atoms: _68  and  _69
REMARK   31  A    between atoms: _75  and  _77
REMARK   32  A    between atoms: _77  and  _78
REMARK   33  A    between atoms: _77  and  _80
REMARK   34  A    between atoms: _80  and  _81
REMARK   35  A    between atoms: _86  and  _88
REMARK   36  A    between atoms: _88  and  _89
REMARK   37  A    between atoms: _92  and  _94
REMARK   38  A    between atoms: _94  and  _95
REMARK   39  A    between atoms: _97  and  _99
REMARK   40  A    between atoms: _99  and  _100
REMARK   41  A    between atoms: _103  and  _105
REMARK   42  A    between atoms: _105  and  _106
REMARK   43  A    between atoms: _105  and  _108
REMARK   44  A    between atoms: _108  and  _109
REMARK   45  A    between atoms: _109  and  _110
REMARK   46  A    between atoms: _112  and  _114
REMARK   47  A    between atoms: _114  and  _115
REMARK   48  A    between atoms: _114  and  _117
REMARK   49  A    between atoms: _117  and  _118
REMARK   50  A    between atoms: _118  and  _119
REMARK   51  A    between atoms: _122  and  _124
REMARK   52  A    between atoms: _124  and  _125
REMARK   53  A    between atoms: _124  and  _127
REMARK   54  A    between atoms: _127  and  _128
REMARK   55  A    between atoms: _133  and  _135
REMARK   56  A    between atoms: _135  and  _136
REMARK   57  A    between atoms: _135  and  _138
REMARK   58  A    between atoms: _138  and  _139
REMARK   59  A    between atoms: _142  and  _144
REMARK   60  A    between atoms: _144  and  _145
REMARK   61  A    between atoms: _144  and  _147
REMARK   62  A    between atoms: _147  and  _148
REMARK   63  A    between atoms: _153  and  _154
REMARK   64  A    between atoms: _156  and  _158
REMARK   65  A    between atoms: _158  and  _159
REMARK   66  A    between atoms: _158  and  _161
REMARK   67  A    between atoms: _161  and  _162
REMARK   68  A    between atoms: _162  and  _163
REMARK   69  A    between atoms: _163  and  _164
REMARK   70  A    between atoms: _173  and  _175
REMARK   71  A    between atoms: _175  and  _176
REMARK   72  A    between atoms: _175  and  _178
REMARK   73  A    between atoms: _178  and  _179
REMARK   74  A    between atoms: _184  and  _186
REMARK   75  A    between atoms: _186  and  _187
REMARK   76  A    between atoms: _186  and  _189
REMARK   77  A    between atoms: _189  and  _190
REMARK   78  A    between atoms: _192  and  _194
REMARK   79  A    between atoms: _194  and  _195
REMARK   80  A    between atoms: _194  and  _197
REMARK   81  A    between atoms: _197  and  _198
REMARK   82  A    between atoms: _200  and  _202
REMARK   83  A    between atoms: _202  and  _203
REMARK   84  A    between atoms: _202  and  _205
REMARK   85  A    between atoms: _205  and  _206
REMARK   86  A    between atoms: _206  and  _207
REMARK   87  A    between atoms: _210  and  _212
REMARK   88  A    between atoms: _212  and  _213
REMARK   89  A    between atoms: _212  and  _215
REMARK   90  A    between atoms: _215  and  _216
REMARK   91  A    between atoms: _216  and  _217
REMARK   92  A    between atoms: _217  and  _218
REMARK   93  A    between atoms: _227  and  _229
REMARK   94  A    between atoms: _229  and  _230
REMARK   95  A    between atoms: _229  and  _232
REMARK   96  A    between atoms: _235  and  _237
REMARK   97  A    between atoms: _237  and  _238
REMARK   98  A    between atoms: _237  and  _240
REMARK   99  A    between atoms: _240  and  _241
REMARK  100  A    between atoms: _244  and  _246
REMARK  101  A    between atoms: _246  and  _247
REMARK  102  A    between atoms: _246  and  _249
REMARK  103  A    between atoms: _252  and  _254
REMARK  104  A    between atoms: _254  and  _255
REMARK  105  A    between atoms: _254  and  _257
REMARK  106  A    between atoms: _257  and  _258
REMARK  107  A    between atoms: _261  and  _263
REMARK  108  A    between atoms: _263  and  _264
REMARK  109  A    between atoms: _267  and  _269
REMARK  110  A    between atoms: _269  and  _270
REMARK  111  A    between atoms: _269  and  _272
REMARK  112  A    between atoms: _272  and  _273
REMARK  113  A    between atoms: _278  and  _280
REMARK  114  A    between atoms: _280  and  _281
REMARK  115  A    between atoms: _280  and  _283
REMARK  116  A    between atoms: _283  and  _284
REMARK  117  A    between atoms: _284  and  _285
REMARK  118  A    between atoms: _288  and  _290
REMARK  119  A    between atoms: _290  and  _291
REMARK  120  A    between atoms: _290  and  _293
REMARK  121  A    between atoms: _293  and  _294
REMARK  122  A    between atoms: _299  and  _301
REMARK  123  A    between atoms: _301  and  _302
REMARK  124  A    between atoms: _301  and  _304
REMARK  125  A    between atoms: _304  and  _305
REMARK  126  A    between atoms: _315  and  _317
REMARK  127  A    between atoms: _317  and  _318
REMARK  128  A    between atoms: _317  and  _320
REMARK  129  A    between atoms: _320  and  _321
REMARK  130  A    between atoms: _324  and  _326
REMARK  131  A    between atoms: _326  and  _327
REMARK  132  A    between atoms: _326  and  _329
REMARK  133  A    between atoms: _329  and  _330
REMARK  134  A    between atoms: _335  and  _337
REMARK  135  A    between atoms: _337  and  _338
REMARK  136  A    between atoms: _337  and  _340
REMARK  137  A    between atoms: _340  and  _341
REMARK  138  A    between atoms: _341  and  _342
REMARK  139  A    between atoms: _345  and  _347
REMARK  140  A    between atoms: _347  and  _348
REMARK  141  A    between atoms: _351  and  _353
REMARK  142  A    between atoms: _353  and  _354
REMARK  143  A    between atoms: _353  and  _356
REMARK  144  A    between atoms: _356  and  _357
REMARK  145  A    between atoms: _359  and  _361
REMARK  146  A    between atoms: _361  and  _362
REMARK  147  A    between atoms: _361  and  _364
REMARK  148  A    between atoms: _364  and  _365
REMARK  149  A    between atoms: _365  and  _366
REMARK  150  A    between atoms: _369  and  _371
REMARK  151  A    between atoms: _371  and  _372
REMARK  152  A    between atoms: _371  and  _374
REMARK  153  A    between atoms: _374  and  _375
REMARK  154  A    between atoms: _380  and  _381
REMARK  155  A    between atoms: _383  and  _385
REMARK  156  A    between atoms: _385  and  _386
REMARK  157  A    between atoms: _385  and  _388
REMARK  158  A    between atoms: _388  and  _389
REMARK  159  A    between atoms: _392  and  _394
REMARK  160  A    between atoms: _394  and  _395
REMARK  161  A    between atoms: _394  and  _397
REMARK  162  A    between atoms: _397  and  _398
REMARK  163  A    between atoms: _403  and  _405
REMARK  164  A    between atoms: _405  and  _406
REMARK  165  A    between atoms: _405  and  _408
REMARK  166  A    between atoms: _408  and  _409
REMARK  167  A    between atoms: _412  and  _414
REMARK  168  A    between atoms: _414  and  _415
REMARK  169  A    between atoms: _414  and  _417
REMARK  170  A    between atoms: _417  and  _418
REMARK  171  A    between atoms: _423  and  _424
REMARK  172  A    between atoms: _426  and  _428
REMARK  173  A    between atoms: _428  and  _429
REMARK  174  A    between atoms: _428  and  _431
REMARK  175  A    between atoms: _431  and  _432
REMARK  176  A    between atoms: _432  and  _433
REMARK  177  A    between atoms: _433  and  _434
REMARK  178  A    between atoms: _443  and  _445
REMARK  179  A    between atoms: _445  and  _446
REMARK  180  A    between atoms: _445  and  _448
REMARK  181  A    between atoms: _451  and  _453
REMARK  182  A    between atoms: _453  and  _454
REMARK  183  A    between atoms: _457  and  _459
REMARK  184  A    between atoms: _459  and  _460
REMARK  185  A    between atoms: _459  and  _462
REMARK  186  A    between atoms: _465  and  _467
REMARK  187  A    between atoms: _467  and  _468
REMARK  188  A    between atoms: _467  and  _470
REMARK  189  A    between atoms: _470  and  _471
REMARK  190  A    between atoms: _473  and  _475
REMARK  191  A    between atoms: _475  and  _476
REMARK  192  A    between atoms: _475  and  _478
REMARK  193  A    between atoms: _478  and  _479
REMARK  194  A    between atoms: _479  and  _480
REMARK  195  A    between atoms: _483  and  _485
REMARK  196  A    between atoms: _485  and  _486
REMARK  197  A    between atoms: _485  and  _488
REMARK  198  A    between atoms: _488  and  _489
REMARK  199  A    between atoms: _492  and  _494
REMARK  200  A    between atoms: _494  and  _495
REMARK  201  A    between atoms: _494  and  _497
REMARK  202  A    between atoms: _497  and  _498
REMARK  203  A    between atoms: _504  and  _506
REMARK  204  A    between atoms: _506  and  _507
REMARK  205  A    between atoms: _506  and  _509
REMARK  206  A    between atoms: _509  and  _510
REMARK  207  A    between atoms: _513  and  _515
REMARK  208  A    between atoms: _515  and  _516
REMARK  209  A    between atoms: _519  and  _521
REMARK  210  A    between atoms: _521  and  _522
REMARK  211  A    between atoms: _521  and  _524
REMARK  212  A    between atoms: _524  and  _525
REMARK  213  A    between atoms: _530  and  _531
REMARK  214  A    between atoms: _533  and  _535
REMARK  215  A    between atoms: _535  and  _536
REMARK  216  A    between atoms: _535  and  _538
REMARK  217  A    between atoms: _538  and  _539
REMARK  218  A    between atoms: _541  and  _543
REMARK  219  A    between atoms: _543  and  _544
REMARK  220  A    between atoms: _543  and  _546
REMARK  221  A    between atoms: _546  and  _547
REMARK  222  A    between atoms: _550  and  _552
REMARK  223  A    between atoms: _552  and  _553
REMARK  224  A    between atoms: _552  and  _555
REMARK  225  A    between atoms: _555  and  _556
REMARK  226  A    between atoms: _558  and  _560
REMARK  227  A    between atoms: _560  and  _561
REMARK  228  A    between atoms: _560  and  _563
REMARK  229  A    between atoms: _563  and  _564
REMARK  230  A    between atoms: _567  and  _569
REMARK  231  A    between atoms: _569  and  _570
REMARK  232  A    between atoms: _569  and  _572
REMARK  233  A    between atoms: _572  and  _573
REMARK  234  A    between atoms: _575  and  _577
REMARK  235  A    between atoms: _577  and  _578
REMARK  236  A    between atoms: _577  and  _580
REMARK  237  A    between atoms: _580  and  _581
REMARK  238  A    between atoms: _584  and  _586
REMARK  239  A    between atoms: _586  and  _587
REMARK  240  A    between atoms: _586  and  _589
REMARK  241  A    between atoms: _589  and  _590
REMARK  242  A    between atoms: _595  and  _597
REMARK  243  A    between atoms: _597  and  _598
REMARK  244  A    between atoms: _597  and  _600
REMARK  245  A    between atoms: _600  and  _601
REMARK  246  A    between atoms: _603  and  _605
REMARK  247  A    between atoms: _605  and  _606
REMARK  248  A    between atoms: _605  and  _608
REMARK  249  A    between atoms: _608  and  _609
REMARK  250  A    between atoms: _615  and  _617
REMARK  251  A    between atoms: _617  and  _618
REMARK  252  A    between atoms: _617  and  _620
REMARK  253  A    between atoms: _620  and  _621
REMARK  254  A    between atoms: _623  and  _625
REMARK  255  A    between atoms: _625  and  _626
REMARK  256  A    between atoms: _625  and  _628
REMARK  257  A    between atoms: _628  and  _629
REMARK  258  A    between atoms: _635  and  _637
REMARK  259  A    between atoms: _637  and  _638
REMARK  260  A    between atoms: _637  and  _640
REMARK  261  A    between atoms: _640  and  _641
REMARK  262  A    between atoms: _643  and  _645
REMARK  263  A    between atoms: _645  and  _646
REMARK  264  A    between atoms: _645  and  _648
REMARK  265  A    between atoms: _648  and  _649
REMARK  266  A    between atoms: _654  and  _656
REMARK  267  A    between atoms: _656  and  _657
REMARK  268  A    between atoms: _656  and  _659
REMARK  269  A    between atoms: _659  and  _660
REMARK  270  A    between atoms: _663  and  _665
REMARK  271  A    between atoms: _665  and  _666
REMARK  272  A    between atoms: _665  and  _668
REMARK  273  A    between atoms: _668  and  _669
REMARK  274  A    between atoms: _672  and  _674
REMARK  275  A    between atoms: _674  and  _675
REMARK  276  A    between atoms: _674  and  _677
REMARK  277  A    between atoms: _677  and  _678
REMARK  278  A    between atoms: _678  and  _679
REMARK  279  A    between atoms: _684  and  _686
REMARK  280  A    between atoms: _686  and  _687
REMARK  281  A    between atoms: _690  and  _692
REMARK  282  A    between atoms: _692  and  _693
REMARK  283  A    between atoms: _692  and  _695
REMARK  284  A    between atoms: _698  and  _700
REMARK  285  A    between atoms: _700  and  _701
REMARK  286  A    between atoms: _700  and  _703
REMARK  287  A    between atoms: _703  and  _704
REMARK  288  A    between atoms: _707  and  _709
REMARK  289  A    between atoms: _709  and  _710
REMARK  290  A    between atoms: _709  and  _712
REMARK  291  A    between atoms: _712  and  _713
REMARK  292  A    between atoms: _713  and  _714
REMARK  293  A    between atoms: _714  and  _715
REMARK  294  A    between atoms: _724  and  _726
REMARK  295  A    between atoms: _726  and  _727
REMARK  296  A    between atoms: _726  and  _729
REMARK  297  A    between atoms: _729  and  _730
REMARK  298  A    between atoms: _730  and  _731
REMARK  299  A    between atoms: _731  and  _732
REMARK  300  A    between atoms: _732  and  _733
REMARK                            x       y       z     vdW  Elec       q    Type
REMARK                         _______ _______ _______ _____ _____    ______ ____
ROOT
ATOM      1  O   HOH     1     101.384  20.528   6.475  0.00  0.00    +0.000 OA
ENDROOT
TORSDOF 0
REMARK  Name = ../refined-set-2016/4fys/4fys_pocket.pdb
REMARK  300 active torsions:
REMARK  status: ('A' for Active; 'I' for Inactive)
REMARK    1  A    between atoms: _1  and  _3
REMARK    2  A    between atoms: _3  and  _4
REMARK    3  A    between atoms: _3  and  _6
REMARK    4  A    between atoms: _6  and  _7
REMARK    5  A    between atoms: _7  and  _8
REMARK    6  A    between atoms: _13  and  _15
REMARK    7  A    between atoms: _15  and  _16
REMARK    8  A    between atoms: _15  and  _18
REMARK    9  A    between atoms: _18  and  _19
REMARK   10  A    between atoms: _19  and  _20
REMARK   11  A    between atoms: _22  and  _24
REMARK   12  A    between atoms: _24  and  _25
REMARK   13  A    between atoms: _24  and  _27
REMARK   14  A    between atoms: _27  and  _28
REMARK   15  A    between atoms: _28  and  _29
REMARK   16  A    between atoms: _34  and  _36
REMARK   17  A    between atoms: _36  and  _37
REMARK   18  A    between atoms: _40  and  _42
REMARK   19  A    between atoms: _42  and  _43
REMARK   20  A    between atoms: _42  and  _45
REMARK   21  A    between atoms: _45  and  _46
REMARK   22  A    between atoms: _51  and  _52
REMARK   23  A    between atoms: _54  and  _56
REMARK   24  A    between atoms: _56  and  _57
REMARK   25  A    between atoms: _56  and  _59
REMARK   26  A    between atoms: _59  and  _60
REMARK   27  A    between atoms: _63  and  _65
REMARK   28  A    between atoms: _65  and  _66
REMARK   29  A    between atoms: _65  and  _68
REMARK   30  A    between atoms: _68  and  _69
REMARK   31  A    between atoms: _75  and  _77
REMARK   32  A    between atoms: _77  and  _78
REMARK   33  A    between atoms: _77  and  _80
REMARK   34  A    between atoms: _80  and  _81
REMARK   35  A    between atoms: _86  and  _88
REMARK   36  A    between atoms: _88  and  _89
REMARK   37  A    between atoms: _92  and  _94
REMARK   38  A    between atoms: _94  and  _95
REMARK   39  A    between atoms: _97  and  _99
REMARK   40  A    between atoms: _99  and  _100
REMARK   41  A    between atoms: _103  and  _105
REMARK   42  A    between atoms: _105  and  _106
REMARK   43  A    between atoms: _105  and  _108
REMARK   44  A    between atoms: _108  and  _109
REMARK   45  A    between atoms: _109  and  _110
REMARK   46  A    between atoms: _112  and  _114
REMARK   47  A    between atoms: _114  and  _115
REMARK   48  A    between atoms: _114  and  _117
REMARK   49  A    between atoms: _117  and  _118
REMARK   50  A    between atoms: _118  and  _119
REMARK   51  A    between atoms: _122  and  _124
REMARK   52  A    between atoms: _124  and  _125
REMARK   53  A    between atoms: _124  and  _127
REMARK   54  A    between atoms: _127  and  _128
REMARK   55  A    between atoms: _133  and  _135
REMARK   56  A    between atoms: _135  and  _136
REMARK   57  A    between atoms: _135  and  _138
REMARK   58  A    between atoms: _138  and  _139
REMARK   59  A    between atoms: _142  and  _144
REMARK   60  A    between atoms: _144  and  _145
REMARK   61  A    between atoms: _144  and  _147
REMARK   62  A    between atoms: _147  and  _148
REMARK   63  A    between atoms: _153  and  _154
REMARK   64  A    between atoms: _156  and  _158
REMARK   65  A    between atoms: _158  and  _159
REMARK   66  A    between atoms: _158  and  _161
REMARK   67  A    between atoms: _161  and  _162
REMARK   68  A    between atoms: _162  and  _163
REMARK   69  A    between atoms: _163  and  _164
REMARK   70  A    between atoms: _173  and  _175
REMARK   71  A    between atoms: _175  and  _176
REMARK   72  A    between atoms: _175  and  _178
REMARK   73  A    between atoms: _178  and  _179
REMARK   74  A    between atoms: _184  and  _186
REMARK   75  A    between atoms: _186  and  _187
REMARK   76  A    between atoms: _186  and  _189
REMARK   77  A    between atoms: _189  and  _190
REMARK   78  A    between atoms: _192  and  _194
REMARK   79  A    between atoms: _194  and  _195
REMARK   80  A    between atoms: _194  and  _197
REMARK   81  A    between atoms: _197  and  _198
REMARK   82  A    between atoms: _200  and  _202
REMARK   83  A    between atoms: _202  and  _203
REMARK   84  A    between atoms: _202  and  _205
REMARK   85  A    between atoms: _205  and  _206
REMARK   86  A    between atoms: _206  and  _207
REMARK   87  A    between atoms: _210  and  _212
REMARK   88  A    between atoms: _212  and  _213
REMARK   89  A    between atoms: _212  and  _215
REMARK   90  A    between atoms: _215  and  _216
REMARK   91  A    between atoms: _216  and  _217
REMARK   92  A    between atoms: _217  and  _218
REMARK   93  A    between atoms: _227  and  _229
REMARK   94  A    between atoms: _229  and  _230
REMARK   95  A    between atoms: _229  and  _232
REMARK   96  A    between atoms: _235  and  _237
REMARK   97  A    between atoms: _237  and  _238
REMARK   98  A    between atoms: _237  and  _240
REMARK   99  A    between atoms: _240  and  _241
REMARK  100  A    between atoms: _244  and  _246
REMARK  101  A    between atoms: _246  and  _247
REMARK  102  A    between atoms: _246  and  _249
REMARK  103  A    between atoms: _252  and  _254
REMARK  104  A    between atoms: _254  and  _255
REMARK  105  A    between atoms: _254  and  _257
REMARK  106  A    between atoms: _257  and  _258
REMARK  107  A    between atoms: _261  and  _263
REMARK  108  A    between atoms: _263  and  _264
REMARK  109  A    between atoms: _267  and  _269
REMARK  110  A    between atoms: _269  and  _270
REMARK  111  A    between atoms: _269  and  _272
REMARK  112  A    between atoms: _272  and  _273
REMARK  113  A    between atoms: _278  and  _280
REMARK  114  A    between atoms: _280  and  _281
REMARK  115  A    between atoms: _280  and  _283
REMARK  116  A    between atoms: _283  and  _284
REMARK  117  A    between atoms: _284  and  _285
REMARK  118  A    between atoms: _288  and  _290
REMARK  119  A    between atoms: _290  and  _291
REMARK  120  A    between atoms: _290  and  _293
REMARK  121  A    between atoms: _293  and  _294
REMARK  122  A    between atoms: _299  and  _301
REMARK  123  A    between atoms: _301  and  _302
REMARK  124  A    between atoms: _301  and  _304
REMARK  125  A    between atoms: _304  and  _305
REMARK  126  A    between atoms: _315  and  _317
REMARK  127  A    between atoms: _317  and  _318
REMARK  128  A    between atoms: _317  and  _320
REMARK  129  A    between atoms: _320  and  _321
REMARK  130  A    between atoms: _324  and  _326
REMARK  131  A    between atoms: _326  and  _327
REMARK  132  A    between atoms: _326  and  _329
REMARK  133  A    between atoms: _329  and  _330
REMARK  134  A    between atoms: _335  and  _337
REMARK  135  A    between atoms: _337  and  _338
REMARK  136  A    between atoms: _337  and  _340
REMARK  137  A    between atoms: _340  and  _341
REMARK  138  A    between atoms: _341  and  _342
REMARK  139  A    between atoms: _345  and  _347
REMARK  140  A    between atoms: _347  and  _348
REMARK  141  A    between atoms: _351  and  _353
REMARK  142  A    between atoms: _353  and  _354
REMARK  143  A    between atoms: _353  and  _356
REMARK  144  A    between atoms: _356  and  _357
REMARK  145  A    between atoms: _359  and  _361
REMARK  146  A    between atoms: _361  and  _362
REMARK  147  A    between atoms: _361  and  _364
REMARK  148  A    between atoms: _364  and  _365
REMARK  149  A    between atoms: _365  and  _366
REMARK  150  A    between atoms: _369  and  _371
REMARK  151  A    between atoms: _371  and  _372
REMARK  152  A    between atoms: _371  and  _374
REMARK  153  A    between atoms: _374  and  _375
REMARK  154  A    between atoms: _380  and  _381
REMARK  155  A    between atoms: _383  and  _385
REMARK  156  A    between atoms: _385  and  _386
REMARK  157  A    between atoms: _385  and  _388
REMARK  158  A    between atoms: _388  and  _389
REMARK  159  A    between atoms: _392  and  _394
REMARK  160  A    between atoms: _394  and  _395
REMARK  161  A    between atoms: _394  and  _397
REMARK  162  A    between atoms: _397  and  _398
REMARK  163  A    between atoms: _403  and  _405
REMARK  164  A    between atoms: _405  and  _406
REMARK  165  A    between atoms: _405  and  _408
REMARK  166  A    between atoms: _408  and  _409
REMARK  167  A    between atoms: _412  and  _414
REMARK  168  A    between atoms: _414  and  _415
REMARK  169  A    between atoms: _414  and  _417
REMARK  170  A    between atoms: _417  and  _418
REMARK  171  A    between atoms: _423  and  _424
REMARK  172  A    between atoms: _426  and  _428
REMARK  173  A    between atoms: _428  and  _429
REMARK  174  A    between atoms: _428  and  _431
REMARK  175  A    between atoms: _431  and  _432
REMARK  176  A    between atoms: _432  and  _433
REMARK  177  A    between atoms: _433  and  _434
REMARK  178  A    between atoms: _443  and  _445
REMARK  179  A    between atoms: _445  and  _446
REMARK  180  A    between atoms: _445  and  _448
REMARK  181  A    between atoms: _451  and  _453
REMARK  182  A    between atoms: _453  and  _454
REMARK  183  A    between atoms: _457  and  _459
REMARK  184  A    between atoms: _459  and  _460
REMARK  185  A    between atoms: _459  and  _462
REMARK  186  A    between atoms: _465  and  _467
REMARK  187  A    between atoms: _467  and  _468
REMARK  188  A    between atoms: _467  and  _470
REMARK  189  A    between atoms: _470  and  _471
REMARK  190  A    between atoms: _473  and  _475
REMARK  191  A    between atoms: _475  and  _476
REMARK  192  A    between atoms: _475  and  _478
REMARK  193  A    between atoms: _478  and  _479
REMARK  194  A    between atoms: _479  and  _480
REMARK  195  A    between atoms: _483  and  _485
REMARK  196  A    between atoms: _485  and  _486
REMARK  197  A    between atoms: _485  and  _488
REMARK  198  A    between atoms: _488  and  _489
REMARK  199  A    between atoms: _492  and  _494
REMARK  200  A    between atoms: _494  and  _495
REMARK  201  A    between atoms: _494  and  _497
REMARK  202  A    between atoms: _497  and  _498
REMARK  203  A    between atoms: _504  and  _506
REMARK  204  A    between atoms: _506  and  _507
REMARK  205  A    between atoms: _506  and  _509
REMARK  206  A    between atoms: _509  and  _510
REMARK  207  A    between atoms: _513  and  _515
REMARK  208  A    between atoms: _515  and  _516
REMARK  209  A    between atoms: _519  and  _521
REMARK  210  A    between atoms: _521  and  _522
REMARK  211  A    between atoms: _521  and  _524
REMARK  212  A    between atoms: _524  and  _525
REMARK  213  A    between atoms: _530  and  _531
REMARK  214  A    between atoms: _533  and  _535
REMARK  215  A    between atoms: _535  and  _536
REMARK  216  A    between atoms: _535  and  _538
REMARK  217  A    between atoms: _538  and  _539
REMARK  218  A    between atoms: _541  and  _543
REMARK  219  A    between atoms: _543  and  _544
REMARK  220  A    between atoms: _543  and  _546
REMARK  221  A    between atoms: _546  and  _547
REMARK  222  A    between atoms: _550  and  _552
REMARK  223  A    between atoms: _552  and  _553
REMARK  224  A    between atoms: _552  and  _555
REMARK  225  A    between atoms: _555  and  _556
REMARK  226  A    between atoms: _558  and  _560
REMARK  227  A    between atoms: _560  and  _561
REMARK  228  A    between atoms: _560  and  _563
REMARK  229  A    between atoms: _563  and  _564
REMARK  230  A    between atoms: _567  and  _569
REMARK  231  A    between atoms: _569  and  _570
REMARK  232  A    between atoms: _569  and  _572
REMARK  233  A    between atoms: _572  and  _573
REMARK  234  A    between atoms: _575  and  _577
REMARK  235  A    between atoms: _577  and  _578
REMARK  236  A    between atoms: _577  and  _580
REMARK  237  A    between atoms: _580  and  _581
REMARK  238  A    between atoms: _584  and  _586
REMARK  239  A    between atoms: _586  and  _587
REMARK  240  A    between atoms: _586  and  _589
REMARK  241  A    between atoms: _589  and  _590
REMARK  242  A    between atoms: _595  and  _597
REMARK  243  A    between atoms: _597  and  _598
REMARK  244  A    between atoms: _597  and  _600
REMARK  245  A    between atoms: _600  and  _601
REMARK  246  A    between atoms: _603  and  _605
REMARK  247  A    between atoms: _605  and  _606
REMARK  248  A    between atoms: _605  and  _608
REMARK  249  A    between atoms: _608  and  _609
REMARK  250  A    between atoms: _615  and  _617
REMARK  251  A    between atoms: _617  and  _618
REMARK  252  A    between atoms: _617  and  _620
REMARK  253  A    between atoms: _620  and  _621
REMARK  254  A    between atoms: _623  and  _625
REMARK  255  A    between atoms: _625  and  _626
REMARK  256  A    between atoms: _625  and  _628
REMARK  257  A    between atoms: _628  and  _629
REMARK  258  A    between atoms: _635  and  _637
REMARK  259  A    between atoms: _637  and  _638
REMARK  260  A    between atoms: _637  and  _640
REMARK  261  A    between atoms: _640  and  _641
REMARK  262  A    between atoms: _643  and  _645
REMARK  263  A    between atoms: _645  and  _646
REMARK  264  A    between atoms: _645  and  _648
REMARK  265  A    between atoms: _648  and  _649
REMARK  266  A    between atoms: _654  and  _656
REMARK  267  A    between atoms: _656  and  _657
REMARK  268  A    between atoms: _656  and  _659
REMARK  269  A    between atoms: _659  and  _660
REMARK  270  A    between atoms: _663  and  _665
REMARK  271  A    between atoms: _665  and  _666
REMARK  272  A    between atoms: _665  and  _668
REMARK  273  A    between atoms: _668  and  _669
REMARK  274  A    between atoms: _672  and  _674
REMARK  275  A    between atoms: _674  and  _675
REMARK  276  A    between atoms: _674  and  _677
REMARK  277  A    between atoms: _677  and  _678
REMARK  278  A    between atoms: _678  and  _679
REMARK  279  A    between atoms: _684  and  _686
REMARK  280  A    between atoms: _686  and  _687
REMARK  281  A    between atoms: _690  and  _692
REMARK  282  A    between atoms: _692  and  _693
REMARK  283  A    between atoms: _692  and  _695
REMARK  284  A    between atoms: _698  and  _700
REMARK  285  A    between atoms: _700  and  _701
REMARK  286  A    between atoms: _700  and  _703
REMARK  287  A    between atoms: _703  and  _704
REMARK  288  A    between atoms: _707  and  _709
REMARK  289  A    between atoms: _709  and  _710
REMARK  290  A    between atoms: _709  and  _712
REMARK  291  A    between atoms: _712  and  _713
REMARK  292  A    between atoms: _713  and  _714
REMARK  293  A    between atoms: _714  and  _715
REMARK  294  A    between atoms: _724  and  _726
REMARK  295  A    between atoms: _726  and  _727
REMARK  296  A    between atoms: _726  and  _729
REMARK  297  A    between atoms: _729  and  _730
REMARK  298  A    between atoms: _730  and  _731
REMARK  299  A    between atoms: _731  and  _732
REMARK  300  A    between atoms: _732  and  _733
REMARK                            x       y       z     vdW  Elec       q    Type
REMARK                         _______ _______ _______ _____ _____    ______ ____
ROOT
ATOM      1  O   HOH     1     103.553  11.491  21.507  0.00  0.00    +0.000 OA
ENDROOT
TORSDOF 0
REMARK  Name = ../refined-set-2016/4fys/4fys_pocket.pdb
REMARK  300 active torsions:
REMARK  status: ('A' for Active; 'I' for Inactive)
REMARK    1  A    between atoms: _1  and  _3
REMARK    2  A    between atoms: _3  and  _4
REMARK    3  A    between atoms: _3  and  _6
REMARK    4  A    between atoms: _6  and  _7
REMARK    5  A    between atoms: _7  and  _8
REMARK    6  A    between atoms: _13  and  _15
REMARK    7  A    between atoms: _15  and  _16
REMARK    8  A    between atoms: _15  and  _18
REMARK    9  A    between atoms: _18  and  _19
REMARK   10  A    between atoms: _19  and  _20
REMARK   11  A    between atoms: _22  and  _24
REMARK   12  A    between atoms: _24  and  _25
REMARK   13  A    between atoms: _24  and  _27
REMARK   14  A    between atoms: _27  and  _28
REMARK   15  A    between atoms: _28  and  _29
REMARK   16  A    between atoms: _34  and  _36
REMARK   17  A    between atoms: _36  and  _37
REMARK   18  A    between atoms: _40  and  _42
REMARK   19  A    between atoms: _42  and  _43
REMARK   20  A    between atoms: _42  and  _45
REMARK   21  A    between atoms: _45  and  _46
REMARK   22  A    between atoms: _51  and  _52
REMARK   23  A    between atoms: _54  and  _56
REMARK   24  A    between atoms: _56  and  _57
REMARK   25  A    between atoms: _56  and  _59
REMARK   26  A    between atoms: _59  and  _60
REMARK   27  A    between atoms: _63  and  _65
REMARK   28  A    between atoms: _65  and  _66
REMARK   29  A    between atoms: _65  and  _68
REMARK   30  A    between atoms: _68  and  _69
REMARK   31  A    between atoms: _75  and  _77
REMARK   32  A    between atoms: _77  and  _78
REMARK   33  A    between atoms: _77  and  _80
REMARK   34  A    between atoms: _80  and  _81
REMARK   35  A    between atoms: _86  and  _88
REMARK   36  A    between atoms: _88  and  _89
REMARK   37  A    between atoms: _92  and  _94
REMARK   38  A    between atoms: _94  and  _95
REMARK   39  A    between atoms: _97  and  _99
REMARK   40  A    between atoms: _99  and  _100
REMARK   41  A    between atoms: _103  and  _105
REMARK   42  A    between atoms: _105  and  _106
REMARK   43  A    between atoms: _105  and  _108
REMARK   44  A    between atoms: _108  and  _109
REMARK   45  A    between atoms: _109  and  _110
REMARK   46  A    between atoms: _112  and  _114
REMARK   47  A    between atoms: _114  and  _115
REMARK   48  A    between atoms: _114  and  _117
REMARK   49  A    between atoms: _117  and  _118
REMARK   50  A    between atoms: _118  and  _119
REMARK   51  A    between atoms: _122  and  _124
REMARK   52  A    between atoms: _124  and  _125
REMARK   53  A    between atoms: _124  and  _127
REMARK   54  A    between atoms: _127  and  _128
REMARK   55  A    between atoms: _133  and  _135
REMARK   56  A    between atoms: _135  and  _136
REMARK   57  A    between atoms: _135  and  _138
REMARK   58  A    between atoms: _138  and  _139
REMARK   59  A    between atoms: _142  and  _144
REMARK   60  A    between atoms: _144  and  _145
REMARK   61  A    between atoms: _144  and  _147
REMARK   62  A    between atoms: _147  and  _148
REMARK   63  A    between atoms: _153  and  _154
REMARK   64  A    between atoms: _156  and  _158
REMARK   65  A    between atoms: _158  and  _159
REMARK   66  A    between atoms: _158  and  _161
REMARK   67  A    between atoms: _161  and  _162
REMARK   68  A    between atoms: _162  and  _163
REMARK   69  A    between atoms: _163  and  _164
REMARK   70  A    between atoms: _173  and  _175
REMARK   71  A    between atoms: _175  and  _176
REMARK   72  A    between atoms: _175  and  _178
REMARK   73  A    between atoms: _178  and  _179
REMARK   74  A    between atoms: _184  and  _186
REMARK   75  A    between atoms: _186  and  _187
REMARK   76  A    between atoms: _186  and  _189
REMARK   77  A    between atoms: _189  and  _190
REMARK   78  A    between atoms: _192  and  _194
REMARK   79  A    between atoms: _194  and  _195
REMARK   80  A    between atoms: _194  and  _197
REMARK   81  A    between atoms: _197  and  _198
REMARK   82  A    between atoms: _200  and  _202
REMARK   83  A    between atoms: _202  and  _203
REMARK   84  A    between atoms: _202  and  _205
REMARK   85  A    between atoms: _205  and  _206
REMARK   86  A    between atoms: _206  and  _207
REMARK   87  A    between atoms: _210  and  _212
REMARK   88  A    between atoms: _212  and  _213
REMARK   89  A    between atoms: _212  and  _215
REMARK   90  A    between atoms: _215  and  _216
REMARK   91  A    between atoms: _216  and  _217
REMARK   92  A    between atoms: _217  and  _218
REMARK   93  A    between atoms: _227  and  _229
REMARK   94  A    between atoms: _229  and  _230
REMARK   95  A    between atoms: _229  and  _232
REMARK   96  A    between atoms: _235  and  _237
REMARK   97  A    between atoms: _237  and  _238
REMARK   98  A    between atoms: _237  and  _240
REMARK   99  A    between atoms: _240  and  _241
REMARK  100  A    between atoms: _244  and  _246
REMARK  101  A    between atoms: _246  and  _247
REMARK  102  A    between atoms: _246  and  _249
REMARK  103  A    between atoms: _252  and  _254
REMARK  104  A    between atoms: _254  and  _255
REMARK  105  A    between atoms: _254  and  _257
REMARK  106  A    between atoms: _257  and  _258
REMARK  107  A    between atoms: _261  and  _263
REMARK  108  A    between atoms: _263  and  _264
REMARK  109  A    between atoms: _267  and  _269
REMARK  110  A    between atoms: _269  and  _270
REMARK  111  A    between atoms: _269  and  _272
REMARK  112  A    between atoms: _272  and  _273
REMARK  113  A    between atoms: _278  and  _280
REMARK  114  A    between atoms: _280  and  _281
REMARK  115  A    between atoms: _280  and  _283
REMARK  116  A    between atoms: _283  and  _284
REMARK  117  A    between atoms: _284  and  _285
REMARK  118  A    between atoms: _288  and  _290
REMARK  119  A    between atoms: _290  and  _291
REMARK  120  A    between atoms: _290  and  _293
REMARK  121  A    between atoms: _293  and  _294
REMARK  122  A    between atoms: _299  and  _301
REMARK  123  A    between atoms: _301  and  _302
REMARK  124  A    between atoms: _301  and  _304
REMARK  125  A    between atoms: _304  and  _305
REMARK  126  A    between atoms: _315  and  _317
REMARK  127  A    between atoms: _317  and  _318
REMARK  128  A    between atoms: _317  and  _320
REMARK  129  A    between atoms: _320  and  _321
REMARK  130  A    between atoms: _324  and  _326
REMARK  131  A    between atoms: _326  and  _327
REMARK  132  A    between atoms: _326  and  _329
REMARK  133  A    between atoms: _329  and  _330
REMARK  134  A    between atoms: _335  and  _337
REMARK  135  A    between atoms: _337  and  _338
REMARK  136  A    between atoms: _337  and  _340
REMARK  137  A    between atoms: _340  and  _341
REMARK  138  A    between atoms: _341  and  _342
REMARK  139  A    between atoms: _345  and  _347
REMARK  140  A    between atoms: _347  and  _348
REMARK  141  A    between atoms: _351  and  _353
REMARK  142  A    between atoms: _353  and  _354
REMARK  143  A    between atoms: _353  and  _356
REMARK  144  A    between atoms: _356  and  _357
REMARK  145  A    between atoms: _359  and  _361
REMARK  146  A    between atoms: _361  and  _362
REMARK  147  A    between atoms: _361  and  _364
REMARK  148  A    between atoms: _364  and  _365
REMARK  149  A    between atoms: _365  and  _366
REMARK  150  A    between atoms: _369  and  _371
REMARK  151  A    between atoms: _371  and  _372
REMARK  152  A    between atoms: _371  and  _374
REMARK  153  A    between atoms: _374  and  _375
REMARK  154  A    between atoms: _380  and  _381
REMARK  155  A    between atoms: _383  and  _385
REMARK  156  A    between atoms: _385  and  _386
REMARK  157  A    between atoms: _385  and  _388
REMARK  158  A    between atoms: _388  and  _389
REMARK  159  A    between atoms: _392  and  _394
REMARK  160  A    between atoms: _394  and  _395
REMARK  161  A    between atoms: _394  and  _397
REMARK  162  A    between atoms: _397  and  _398
REMARK  163  A    between atoms: _403  and  _405
REMARK  164  A    between atoms: _405  and  _406
REMARK  165  A    between atoms: _405  and  _408
REMARK  166  A    between atoms: _408  and  _409
REMARK  167  A    between atoms: _412  and  _414
REMARK  168  A    between atoms: _414  and  _415
REMARK  169  A    between atoms: _414  and  _417
REMARK  170  A    between atoms: _417  and  _418
REMARK  171  A    between atoms: _423  and  _424
REMARK  172  A    between atoms: _426  and  _428
REMARK  173  A    between atoms: _428  and  _429
REMARK  174  A    between atoms: _428  and  _431
REMARK  175  A    between atoms: _431  and  _432
REMARK  176  A    between atoms: _432  and  _433
REMARK  177  A    between atoms: _433  and  _434
REMARK  178  A    between atoms: _443  and  _445
REMARK  179  A    between atoms: _445  and  _446
REMARK  180  A    between atoms: _445  and  _448
REMARK  181  A    between atoms: _451  and  _453
REMARK  182  A    between atoms: _453  and  _454
REMARK  183  A    between atoms: _457  and  _459
REMARK  184  A    between atoms: _459  and  _460
REMARK  185  A    between atoms: _459  and  _462
REMARK  186  A    between atoms: _465  and  _467
REMARK  187  A    between atoms: _467  and  _468
REMARK  188  A    between atoms: _467  and  _470
REMARK  189  A    between atoms: _470  and  _471
REMARK  190  A    between atoms: _473  and  _475
REMARK  191  A    between atoms: _475  and  _476
REMARK  192  A    between atoms: _475  and  _478
REMARK  193  A    between atoms: _478  and  _479
REMARK  194  A    between atoms: _479  and  _480
REMARK  195  A    between atoms: _483  and  _485
REMARK  196  A    between atoms: _485  and  _486
REMARK  197  A    between atoms: _485  and  _488
REMARK  198  A    between atoms: _488  and  _489
REMARK  199  A    between atoms: _492  and  _494
REMARK  200  A    between atoms: _494  and  _495
REMARK  201  A    between atoms: _494  and  _497
REMARK  202  A    between atoms: _497  and  _498
REMARK  203  A    between atoms: _504  and  _506
REMARK  204  A    between atoms: _506  and  _507
REMARK  205  A    between atoms: _506  and  _509
REMARK  206  A    between atoms: _509  and  _510
REMARK  207  A    between atoms: _513  and  _515
REMARK  208  A    between atoms: _515  and  _516
REMARK  209  A    between atoms: _519  and  _521
REMARK  210  A    between atoms: _521  and  _522
REMARK  211  A    between atoms: _521  and  _524
REMARK  212  A    between atoms: _524  and  _525
REMARK  213  A    between atoms: _530  and  _531
REMARK  214  A    between atoms: _533  and  _535
REMARK  215  A    between atoms: _535  and  _536
REMARK  216  A    between atoms: _535  and  _538
REMARK  217  A    between atoms: _538  and  _539
REMARK  218  A    between atoms: _541  and  _543
REMARK  219  A    between atoms: _543  and  _544
REMARK  220  A    between atoms: _543  and  _546
REMARK  221  A    between atoms: _546  and  _547
REMARK  222  A    between atoms: _550  and  _552
REMARK  223  A    between atoms: _552  and  _553
REMARK  224  A    between atoms: _552  and  _555
REMARK  225  A    between atoms: _555  and  _556
REMARK  226  A    between atoms: _558  and  _560
REMARK  227  A    between atoms: _560  and  _561
REMARK  228  A    between atoms: _560  and  _563
REMARK  229  A    between atoms: _563  and  _564
REMARK  230  A    between atoms: _567  and  _569
REMARK  231  A    between atoms: _569  and  _570
REMARK  232  A    between atoms: _569  and  _572
REMARK  233  A    between atoms: _572  and  _573
REMARK  234  A    between atoms: _575  and  _577
REMARK  235  A    between atoms: _577  and  _578
REMARK  236  A    between atoms: _577  and  _580
REMARK  237  A    between atoms: _580  and  _581
REMARK  238  A    between atoms: _584  and  _586
REMARK  239  A    between atoms: _586  and  _587
REMARK  240  A    between atoms: _586  and  _589
REMARK  241  A    between atoms: _589  and  _590
REMARK  242  A    between atoms: _595  and  _597
REMARK  243  A    between atoms: _597  and  _598
REMARK  244  A    between atoms: _597  and  _600
REMARK  245  A    between atoms: _600  and  _601
REMARK  246  A    between atoms: _603  and  _605
REMARK  247  A    between atoms: _605  and  _606
REMARK  248  A    between atoms: _605  and  _608
REMARK  249  A    between atoms: _608  and  _609
REMARK  250  A    between atoms: _615  and  _617
REMARK  251  A    between atoms: _617  and  _618
REMARK  252  A    between atoms: _617  and  _620
REMARK  253  A    between atoms: _620  and  _621
REMARK  254  A    between atoms: _623  and  _625
REMARK  255  A    between atoms: _625  and  _626
REMARK  256  A    between atoms: _625  and  _628
REMARK  257  A    between atoms: _628  and  _629
REMARK  258  A    between atoms: _635  and  _637
REMARK  259  A    between atoms: _637  and  _638
REMARK  260  A    between atoms: _637  and  _640
REMARK  261  A    between atoms: _640  and  _641
REMARK  262  A    between atoms: _643  and  _645
REMARK  263  A    between atoms: _645  and  _646
REMARK  264  A    between atoms: _645  and  _648
REMARK  265  A    between atoms: _648  and  _649
REMARK  266  A    between atoms: _654  and  _656
REMARK  267  A    between atoms: _656  and  _657
REMARK  268  A    between atoms: _656  and  _659
REMARK  269  A    between atoms: _659  and  _660
REMARK  270  A    between atoms: _663  and  _665
REMARK  271  A    between atoms: _665  and  _666
REMARK  272  A    between atoms: _665  and  _668
REMARK  273  A    between atoms: _668  and  _669
REMARK  274  A    between atoms: _672  and  _674
REMARK  275  A    between atoms: _674  and  _675
REMARK  276  A    between atoms: _674  and  _677
REMARK  277  A    between atoms: _677  and  _678
REMARK  278  A    between atoms: _678  and  _679
REMARK  279  A    between atoms: _684  and  _686
REMARK  280  A    between atoms: _686  and  _687
REMARK  281  A    between atoms: _690  and  _692
REMARK  282  A    between atoms: _692  and  _693
REMARK  283  A    between atoms: _692  and  _695
REMARK  284  A    between atoms: _698  and  _700
REMARK  285  A    between atoms: _700  and  _701
REMARK  286  A    between atoms: _700  and  _703
REMARK  287  A    between atoms: _703  and  _704
REMARK  288  A    between atoms: _707  and  _709
REMARK  289  A    between atoms: _709  and  _710
REMARK  290  A    between atoms: _709  and  _712
REMARK  291  A    between atoms: _712  and  _713
REMARK  292  A    between atoms: _713  and  _714
REMARK  293  A    between atoms: _714  and  _715
REMARK  294  A    between atoms: _724  and  _726
REMARK  295  A    between atoms: _726  and  _727
REMARK  296  A    between atoms: _726  and  _729
REMARK  297  A    between atoms: _729  and  _730
REMARK  298  A    between atoms: _730  and  _731
REMARK  299  A    between atoms: _731  and  _732
REMARK  300  A    between atoms: _732  and  _733
REMARK                            x       y       z     vdW  Elec       q    Type
REMARK                         _______ _______ _______ _____ _____    ______ ____
ROOT
ATOM      1  O   HOH     1      96.763  11.581  15.811  0.00  0.00    +0.000 OA
ENDROOT
TORSDOF 0
REMARK  Name = ../refined-set-2016/4fys/4fys_pocket.pdb
REMARK  300 active torsions:
REMARK  status: ('A' for Active; 'I' for Inactive)
REMARK    1  A    between atoms: _1  and  _3
REMARK    2  A    between atoms: _3  and  _4
REMARK    3  A    between atoms: _3  and  _6
REMARK    4  A    between atoms: _6  and  _7
REMARK    5  A    between atoms: _7  and  _8
REMARK    6  A    between atoms: _13  and  _15
REMARK    7  A    between atoms: _15  and  _16
REMARK    8  A    between atoms: _15  and  _18
REMARK    9  A    between atoms: _18  and  _19
REMARK   10  A    between atoms: _19  and  _20
REMARK   11  A    between atoms: _22  and  _24
REMARK   12  A    between atoms: _24  and  _25
REMARK   13  A    between atoms: _24  and  _27
REMARK   14  A    between atoms: _27  and  _28
REMARK   15  A    between atoms: _28  and  _29
REMARK   16  A    between atoms: _34  and  _36
REMARK   17  A    between atoms: _36  and  _37
REMARK   18  A    between atoms: _40  and  _42
REMARK   19  A    between atoms: _42  and  _43
REMARK   20  A    between atoms: _42  and  _45
REMARK   21  A    between atoms: _45  and  _46
REMARK   22  A    between atoms: _51  and  _52
REMARK   23  A    between atoms: _54  and  _56
REMARK   24  A    between atoms: _56  and  _57
REMARK   25  A    between atoms: _56  and  _59
REMARK   26  A    between atoms: _59  and  _60
REMARK   27  A    between atoms: _63  and  _65
REMARK   28  A    between atoms: _65  and  _66
REMARK   29  A    between atoms: _65  and  _68
REMARK   30  A    between atoms: _68  and  _69
REMARK   31  A    between atoms: _75  and  _77
REMARK   32  A    between atoms: _77  and  _78
REMARK   33  A    between atoms: _77  and  _80
REMARK   34  A    between atoms: _80  and  _81
REMARK   35  A    between atoms: _86  and  _88
REMARK   36  A    between atoms: _88  and  _89
REMARK   37  A    between atoms: _92  and  _94
REMARK   38  A    between atoms: _94  and  _95
REMARK   39  A    between atoms: _97  and  _99
REMARK   40  A    between atoms: _99  and  _100
REMARK   41  A    between atoms: _103  and  _105
REMARK   42  A    between atoms: _105  and  _106
REMARK   43  A    between atoms: _105  and  _108
REMARK   44  A    between atoms: _108  and  _109
REMARK   45  A    between atoms: _109  and  _110
REMARK   46  A    between atoms: _112  and  _114
REMARK   47  A    between atoms: _114  and  _115
REMARK   48  A    between atoms: _114  and  _117
REMARK   49  A    between atoms: _117  and  _118
REMARK   50  A    between atoms: _118  and  _119
REMARK   51  A    between atoms: _122  and  _124
REMARK   52  A    between atoms: _124  and  _125
REMARK   53  A    between atoms: _124  and  _127
REMARK   54  A    between atoms: _127  and  _128
REMARK   55  A    between atoms: _133  and  _135
REMARK   56  A    between atoms: _135  and  _136
REMARK   57  A    between atoms: _135  and  _138
REMARK   58  A    between atoms: _138  and  _139
REMARK   59  A    between atoms: _142  and  _144
REMARK   60  A    between atoms: _144  and  _145
REMARK   61  A    between atoms: _144  and  _147
REMARK   62  A    between atoms: _147  and  _148
REMARK   63  A    between atoms: _153  and  _154
REMARK   64  A    between atoms: _156  and  _158
REMARK   65  A    between atoms: _158  and  _159
REMARK   66  A    between atoms: _158  and  _161
REMARK   67  A    between atoms: _161  and  _162
REMARK   68  A    between atoms: _162  and  _163
REMARK   69  A    between atoms: _163  and  _164
REMARK   70  A    between atoms: _173  and  _175
REMARK   71  A    between atoms: _175  and  _176
REMARK   72  A    between atoms: _175  and  _178
REMARK   73  A    between atoms: _178  and  _179
REMARK   74  A    between atoms: _184  and  _186
REMARK   75  A    between atoms: _186  and  _187
REMARK   76  A    between atoms: _186  and  _189
REMARK   77  A    between atoms: _189  and  _190
REMARK   78  A    between atoms: _192  and  _194
REMARK   79  A    between atoms: _194  and  _195
REMARK   80  A    between atoms: _194  and  _197
REMARK   81  A    between atoms: _197  and  _198
REMARK   82  A    between atoms: _200  and  _202
REMARK   83  A    between atoms: _202  and  _203
REMARK   84  A    between atoms: _202  and  _205
REMARK   85  A    between atoms: _205  and  _206
REMARK   86  A    between atoms: _206  and  _207
REMARK   87  A    between atoms: _210  and  _212
REMARK   88  A    between atoms: _212  and  _213
REMARK   89  A    between atoms: _212  and  _215
REMARK   90  A    between atoms: _215  and  _216
REMARK   91  A    between atoms: _216  and  _217
REMARK   92  A    between atoms: _217  and  _218
REMARK   93  A    between atoms: _227  and  _229
REMARK   94  A    between atoms: _229  and  _230
REMARK   95  A    between atoms: _229  and  _232
REMARK   96  A    between atoms: _235  and  _237
REMARK   97  A    between atoms: _237  and  _238
REMARK   98  A    between atoms: _237  and  _240
REMARK   99  A    between atoms: _240  and  _241
REMARK  100  A    between atoms: _244  and  _246
REMARK  101  A    between atoms: _246  and  _247
REMARK  102  A    between atoms: _246  and  _249
REMARK  103  A    between atoms: _252  and  _254
REMARK  104  A    between atoms: _254  and  _255
REMARK  105  A    between atoms: _254  and  _257
REMARK  106  A    between atoms: _257  and  _258
REMARK  107  A    between atoms: _261  and  _263
REMARK  108  A    between atoms: _263  and  _264
REMARK  109  A    between atoms: _267  and  _269
REMARK  110  A    between atoms: _269  and  _270
REMARK  111  A    between atoms: _269  and  _272
REMARK  112  A    between atoms: _272  and  _273
REMARK  113  A    between atoms: _278  and  _280
REMARK  114  A    between atoms: _280  and  _281
REMARK  115  A    between atoms: _280  and  _283
REMARK  116  A    between atoms: _283  and  _284
REMARK  117  A    between atoms: _284  and  _285
REMARK  118  A    between atoms: _288  and  _290
REMARK  119  A    between atoms: _290  and  _291
REMARK  120  A    between atoms: _290  and  _293
REMARK  121  A    between atoms: _293  and  _294
REMARK  122  A    between atoms: _299  and  _301
REMARK  123  A    between atoms: _301  and  _302
REMARK  124  A    between atoms: _301  and  _304
REMARK  125  A    between atoms: _304  and  _305
REMARK  126  A    between atoms: _315  and  _317
REMARK  127  A    between atoms: _317  and  _318
REMARK  128  A    between atoms: _317  and  _320
REMARK  129  A    between atoms: _320  and  _321
REMARK  130  A    between atoms: _324  and  _326
REMARK  131  A    between atoms: _326  and  _327
REMARK  132  A    between atoms: _326  and  _329
REMARK  133  A    between atoms: _329  and  _330
REMARK  134  A    between atoms: _335  and  _337
REMARK  135  A    between atoms: _337  and  _338
REMARK  136  A    between atoms: _337  and  _340
REMARK  137  A    between atoms: _340  and  _341
REMARK  138  A    between atoms: _341  and  _342
REMARK  139  A    between atoms: _345  and  _347
REMARK  140  A    between atoms: _347  and  _348
REMARK  141  A    between atoms: _351  and  _353
REMARK  142  A    between atoms: _353  and  _354
REMARK  143  A    between atoms: _353  and  _356
REMARK  144  A    between atoms: _356  and  _357
REMARK  145  A    between atoms: _359  and  _361
REMARK  146  A    between atoms: _361  and  _362
REMARK  147  A    between atoms: _361  and  _364
REMARK  148  A    between atoms: _364  and  _365
REMARK  149  A    between atoms: _365  and  _366
REMARK  150  A    between atoms: _369  and  _371
REMARK  151  A    between atoms: _371  and  _372
REMARK  152  A    between atoms: _371  and  _374
REMARK  153  A    between atoms: _374  and  _375
REMARK  154  A    between atoms: _380  and  _381
REMARK  155  A    between atoms: _383  and  _385
REMARK  156  A    between atoms: _385  and  _386
REMARK  157  A    between atoms: _385  and  _388
REMARK  158  A    between atoms: _388  and  _389
REMARK  159  A    between atoms: _392  and  _394
REMARK  160  A    between atoms: _394  and  _395
REMARK  161  A    between atoms: _394  and  _397
REMARK  162  A    between atoms: _397  and  _398
REMARK  163  A    between atoms: _403  and  _405
REMARK  164  A    between atoms: _405  and  _406
REMARK  165  A    between atoms: _405  and  _408
REMARK  166  A    between atoms: _408  and  _409
REMARK  167  A    between atoms: _412  and  _414
REMARK  168  A    between atoms: _414  and  _415
REMARK  169  A    between atoms: _414  and  _417
REMARK  170  A    between atoms: _417  and  _418
REMARK  171  A    between atoms: _423  and  _424
REMARK  172  A    between atoms: _426  and  _428
REMARK  173  A    between atoms: _428  and  _429
REMARK  174  A    between atoms: _428  and  _431
REMARK  175  A    between atoms: _431  and  _432
REMARK  176  A    between atoms: _432  and  _433
REMARK  177  A    between atoms: _433  and  _434
REMARK  178  A    between atoms: _443  and  _445
REMARK  179  A    between atoms: _445  and  _446
REMARK  180  A    between atoms: _445  and  _448
REMARK  181  A    between atoms: _451  and  _453
REMARK  182  A    between atoms: _453  and  _454
REMARK  183  A    between atoms: _457  and  _459
REMARK  184  A    between atoms: _459  and  _460
REMARK  185  A    between atoms: _459  and  _462
REMARK  186  A    between atoms: _465  and  _467
REMARK  187  A    between atoms: _467  and  _468
REMARK  188  A    between atoms: _467  and  _470
REMARK  189  A    between atoms: _470  and  _471
REMARK  190  A    between atoms: _473  and  _475
REMARK  191  A    between atoms: _475  and  _476
REMARK  192  A    between atoms: _475  and  _478
REMARK  193  A    between atoms: _478  and  _479
REMARK  194  A    between atoms: _479  and  _480
REMARK  195  A    between atoms: _483  and  _485
REMARK  196  A    between atoms: _485  and  _486
REMARK  197  A    between atoms: _485  and  _488
REMARK  198  A    between atoms: _488  and  _489
REMARK  199  A    between atoms: _492  and  _494
REMARK  200  A    between atoms: _494  and  _495
REMARK  201  A    between atoms: _494  and  _497
REMARK  202  A    between atoms: _497  and  _498
REMARK  203  A    between atoms: _504  and  _506
REMARK  204  A    between atoms: _506  and  _507
REMARK  205  A    between atoms: _506  and  _509
REMARK  206  A    between atoms: _509  and  _510
REMARK  207  A    between atoms: _513  and  _515
REMARK  208  A    between atoms: _515  and  _516
REMARK  209  A    between atoms: _519  and  _521
REMARK  210  A    between atoms: _521  and  _522
REMARK  211  A    between atoms: _521  and  _524
REMARK  212  A    between atoms: _524  and  _525
REMARK  213  A    between atoms: _530  and  _531
REMARK  214  A    between atoms: _533  and  _535
REMARK  215  A    between atoms: _535  and  _536
REMARK  216  A    between atoms: _535  and  _538
REMARK  217  A    between atoms: _538  and  _539
REMARK  218  A    between atoms: _541  and  _543
REMARK  219  A    between atoms: _543  and  _544
REMARK  220  A    between atoms: _543  and  _546
REMARK  221  A    between atoms: _546  and  _547
REMARK  222  A    between atoms: _550  and  _552
REMARK  223  A    between atoms: _552  and  _553
REMARK  224  A    between atoms: _552  and  _555
REMARK  225  A    between atoms: _555  and  _556
REMARK  226  A    between atoms: _558  and  _560
REMARK  227  A    between atoms: _560  and  _561
REMARK  228  A    between atoms: _560  and  _563
REMARK  229  A    between atoms: _563  and  _564
REMARK  230  A    between atoms: _567  and  _569
REMARK  231  A    between atoms: _569  and  _570
REMARK  232  A    between atoms: _569  and  _572
REMARK  233  A    between atoms: _572  and  _573
REMARK  234  A    between atoms: _575  and  _577
REMARK  235  A    between atoms: _577  and  _578
REMARK  236  A    between atoms: _577  and  _580
REMARK  237  A    between atoms: _580  and  _581
REMARK  238  A    between atoms: _584  and  _586
REMARK  239  A    between atoms: _586  and  _587
REMARK  240  A    between atoms: _586  and  _589
REMARK  241  A    between atoms: _589  and  _590
REMARK  242  A    between atoms: _595  and  _597
REMARK  243  A    between atoms: _597  and  _598
REMARK  244  A    between atoms: _597  and  _600
REMARK  245  A    between atoms: _600  and  _601
REMARK  246  A    between atoms: _603  and  _605
REMARK  247  A    between atoms: _605  and  _606
REMARK  248  A    between atoms: _605  and  _608
REMARK  249  A    between atoms: _608  and  _609
REMARK  250  A    between atoms: _615  and  _617
REMARK  251  A    between atoms: _617  and  _618
REMARK  252  A    between atoms: _617  and  _620
REMARK  253  A    between atoms: _620  and  _621
REMARK  254  A    between atoms: _623  and  _625
REMARK  255  A    between atoms: _625  and  _626
REMARK  256  A    between atoms: _625  and  _628
REMARK  257  A    between atoms: _628  and  _629
REMARK  258  A    between atoms: _635  and  _637
REMARK  259  A    between atoms: _637  and  _638
REMARK  260  A    between atoms: _637  and  _640
REMARK  261  A    between atoms: _640  and  _641
REMARK  262  A    between atoms: _643  and  _645
REMARK  263  A    between atoms: _645  and  _646
REMARK  264  A    between atoms: _645  and  _648
REMARK  265  A    between atoms: _648  and  _649
REMARK  266  A    between atoms: _654  and  _656
REMARK  267  A    between atoms: _656  and  _657
REMARK  268  A    between atoms: _656  and  _659
REMARK  269  A    between atoms: _659  and  _660
REMARK  270  A    between atoms: _663  and  _665
REMARK  271  A    between atoms: _665  and  _666
REMARK  272  A    between atoms: _665  and  _668
REMARK  273  A    between atoms: _668  and  _669
REMARK  274  A    between atoms: _672  and  _674
REMARK  275  A    between atoms: _674  and  _675
REMARK  276  A    between atoms: _674  and  _677
REMARK  277  A    between atoms: _677  and  _678
REMARK  278  A    between atoms: _678  and  _679
REMARK  279  A    between atoms: _684  and  _686
REMARK  280  A    between atoms: _686  and  _687
REMARK  281  A    between atoms: _690  and  _692
REMARK  282  A    between atoms: _692  and  _693
REMARK  283  A    between atoms: _692  and  _695
REMARK  284  A    between atoms: _698  and  _700
REMARK  285  A    between atoms: _700  and  _701
REMARK  286  A    between atoms: _700  and  _703
REMARK  287  A    between atoms: _703  and  _704
REMARK  288  A    between atoms: _707  and  _709
REMARK  289  A    between atoms: _709  and  _710
REMARK  290  A    between atoms: _709  and  _712
REMARK  291  A    between atoms: _712  and  _713
REMARK  292  A    between atoms: _713  and  _714
REMARK  293  A    between atoms: _714  and  _715
REMARK  294  A    between atoms: _724  and  _726
REMARK  295  A    between atoms: _726  and  _727
REMARK  296  A    between atoms: _726  and  _729
REMARK  297  A    between atoms: _729  and  _730
REMARK  298  A    between atoms: _730  and  _731
REMARK  299  A    between atoms: _731  and  _732
REMARK  300  A    between atoms: _732  and  _733
REMARK                            x       y       z     vdW  Elec       q    Type
REMARK                         _______ _______ _______ _____ _____    ______ ____
ROOT
ATOM      1  O   HOH     1      98.863  21.693   5.522  0.00  0.00    +0.000 OA
ENDROOT
TORSDOF 0
REMARK  Name = ../refined-set-2016/4fys/4fys_pocket.pdb
REMARK  300 active torsions:
REMARK  status: ('A' for Active; 'I' for Inactive)
REMARK    1  A    between atoms: _1  and  _3
REMARK    2  A    between atoms: _3  and  _4
REMARK    3  A    between atoms: _3  and  _6
REMARK    4  A    between atoms: _6  and  _7
REMARK    5  A    between atoms: _7  and  _8
REMARK    6  A    between atoms: _13  and  _15
REMARK    7  A    between atoms: _15  and  _16
REMARK    8  A    between atoms: _15  and  _18
REMARK    9  A    between atoms: _18  and  _19
REMARK   10  A    between atoms: _19  and  _20
REMARK   11  A    between atoms: _22  and  _24
REMARK   12  A    between atoms: _24  and  _25
REMARK   13  A    between atoms: _24  and  _27
REMARK   14  A    between atoms: _27  and  _28
REMARK   15  A    between atoms: _28  and  _29
REMARK   16  A    between atoms: _34  and  _36
REMARK   17  A    between atoms: _36  and  _37
REMARK   18  A    between atoms: _40  and  _42
REMARK   19  A    between atoms: _42  and  _43
REMARK   20  A    between atoms: _42  and  _45
REMARK   21  A    between atoms: _45  and  _46
REMARK   22  A    between atoms: _51  and  _52
REMARK   23  A    between atoms: _54  and  _56
REMARK   24  A    between atoms: _56  and  _57
REMARK   25  A    between atoms: _56  and  _59
REMARK   26  A    between atoms: _59  and  _60
REMARK   27  A    between atoms: _63  and  _65
REMARK   28  A    between atoms: _65  and  _66
REMARK   29  A    between atoms: _65  and  _68
REMARK   30  A    between atoms: _68  and  _69
REMARK   31  A    between atoms: _75  and  _77
REMARK   32  A    between atoms: _77  and  _78
REMARK   33  A    between atoms: _77  and  _80
REMARK   34  A    between atoms: _80  and  _81
REMARK   35  A    between atoms: _86  and  _88
REMARK   36  A    between atoms: _88  and  _89
REMARK   37  A    between atoms: _92  and  _94
REMARK   38  A    between atoms: _94  and  _95
REMARK   39  A    between atoms: _97  and  _99
REMARK   40  A    between atoms: _99  and  _100
REMARK   41  A    between atoms: _103  and  _105
REMARK   42  A    between atoms: _105  and  _106
REMARK   43  A    between atoms: _105  and  _108
REMARK   44  A    between atoms: _108  and  _109
REMARK   45  A    between atoms: _109  and  _110
REMARK   46  A    between atoms: _112  and  _114
REMARK   47  A    between atoms: _114  and  _115
REMARK   48  A    between atoms: _114  and  _117
REMARK   49  A    between atoms: _117  and  _118
REMARK   50  A    between atoms: _118  and  _119
REMARK   51  A    between atoms: _122  and  _124
REMARK   52  A    between atoms: _124  and  _125
REMARK   53  A    between atoms: _124  and  _127
REMARK   54  A    between atoms: _127  and  _128
REMARK   55  A    between atoms: _133  and  _135
REMARK   56  A    between atoms: _135  and  _136
REMARK   57  A    between atoms: _135  and  _138
REMARK   58  A    between atoms: _138  and  _139
REMARK   59  A    between atoms: _142  and  _144
REMARK   60  A    between atoms: _144  and  _145
REMARK   61  A    between atoms: _144  and  _147
REMARK   62  A    between atoms: _147  and  _148
REMARK   63  A    between atoms: _153  and  _154
REMARK   64  A    between atoms: _156  and  _158
REMARK   65  A    between atoms: _158  and  _159
REMARK   66  A    between atoms: _158  and  _161
REMARK   67  A    between atoms: _161  and  _162
REMARK   68  A    between atoms: _162  and  _163
REMARK   69  A    between atoms: _163  and  _164
REMARK   70  A    between atoms: _173  and  _175
REMARK   71  A    between atoms: _175  and  _176
REMARK   72  A    between atoms: _175  and  _178
REMARK   73  A    between atoms: _178  and  _179
REMARK   74  A    between atoms: _184  and  _186
REMARK   75  A    between atoms: _186  and  _187
REMARK   76  A    between atoms: _186  and  _189
REMARK   77  A    between atoms: _189  and  _190
REMARK   78  A    between atoms: _192  and  _194
REMARK   79  A    between atoms: _194  and  _195
REMARK   80  A    between atoms: _194  and  _197
REMARK   81  A    between atoms: _197  and  _198
REMARK   82  A    between atoms: _200  and  _202
REMARK   83  A    between atoms: _202  and  _203
REMARK   84  A    between atoms: _202  and  _205
REMARK   85  A    between atoms: _205  and  _206
REMARK   86  A    between atoms: _206  and  _207
REMARK   87  A    between atoms: _210  and  _212
REMARK   88  A    between atoms: _212  and  _213
REMARK   89  A    between atoms: _212  and  _215
REMARK   90  A    between atoms: _215  and  _216
REMARK   91  A    between atoms: _216  and  _217
REMARK   92  A    between atoms: _217  and  _218
REMARK   93  A    between atoms: _227  and  _229
REMARK   94  A    between atoms: _229  and  _230
REMARK   95  A    between atoms: _229  and  _232
REMARK   96  A    between atoms: _235  and  _237
REMARK   97  A    between atoms: _237  and  _238
REMARK   98  A    between atoms: _237  and  _240
REMARK   99  A    between atoms: _240  and  _241
REMARK  100  A    between atoms: _244  and  _246
REMARK  101  A    between atoms: _246  and  _247
REMARK  102  A    between atoms: _246  and  _249
REMARK  103  A    between atoms: _252  and  _254
REMARK  104  A    between atoms: _254  and  _255
REMARK  105  A    between atoms: _254  and  _257
REMARK  106  A    between atoms: _257  and  _258
REMARK  107  A    between atoms: _261  and  _263
REMARK  108  A    between atoms: _263  and  _264
REMARK  109  A    between atoms: _267  and  _269
REMARK  110  A    between atoms: _269  and  _270
REMARK  111  A    between atoms: _269  and  _272
REMARK  112  A    between atoms: _272  and  _273
REMARK  113  A    between atoms: _278  and  _280
REMARK  114  A    between atoms: _280  and  _281
REMARK  115  A    between atoms: _280  and  _283
REMARK  116  A    between atoms: _283  and  _284
REMARK  117  A    between atoms: _284  and  _285
REMARK  118  A    between atoms: _288  and  _290
REMARK  119  A    between atoms: _290  and  _291
REMARK  120  A    between atoms: _290  and  _293
REMARK  121  A    between atoms: _293  and  _294
REMARK  122  A    between atoms: _299  and  _301
REMARK  123  A    between atoms: _301  and  _302
REMARK  124  A    between atoms: _301  and  _304
REMARK  125  A    between atoms: _304  and  _305
REMARK  126  A    between atoms: _315  and  _317
REMARK  127  A    between atoms: _317  and  _318
REMARK  128  A    between atoms: _317  and  _320
REMARK  129  A    between atoms: _320  and  _321
REMARK  130  A    between atoms: _324  and  _326
REMARK  131  A    between atoms: _326  and  _327
REMARK  132  A    between atoms: _326  and  _329
REMARK  133  A    between atoms: _329  and  _330
REMARK  134  A    between atoms: _335  and  _337
REMARK  135  A    between atoms: _337  and  _338
REMARK  136  A    between atoms: _337  and  _340
REMARK  137  A    between atoms: _340  and  _341
REMARK  138  A    between atoms: _341  and  _342
REMARK  139  A    between atoms: _345  and  _347
REMARK  140  A    between atoms: _347  and  _348
REMARK  141  A    between atoms: _351  and  _353
REMARK  142  A    between atoms: _353  and  _354
REMARK  143  A    between atoms: _353  and  _356
REMARK  144  A    between atoms: _356  and  _357
REMARK  145  A    between atoms: _359  and  _361
REMARK  146  A    between atoms: _361  and  _362
REMARK  147  A    between atoms: _361  and  _364
REMARK  148  A    between atoms: _364  and  _365
REMARK  149  A    between atoms: _365  and  _366
REMARK  150  A    between atoms: _369  and  _371
REMARK  151  A    between atoms: _371  and  _372
REMARK  152  A    between atoms: _371  and  _374
REMARK  153  A    between atoms: _374  and  _375
REMARK  154  A    between atoms: _380  and  _381
REMARK  155  A    between atoms: _383  and  _385
REMARK  156  A    between atoms: _385  and  _386
REMARK  157  A    between atoms: _385  and  _388
REMARK  158  A    between atoms: _388  and  _389
REMARK  159  A    between atoms: _392  and  _394
REMARK  160  A    between atoms: _394  and  _395
REMARK  161  A    between atoms: _394  and  _397
REMARK  162  A    between atoms: _397  and  _398
REMARK  163  A    between atoms: _403  and  _405
REMARK  164  A    between atoms: _405  and  _406
REMARK  165  A    between atoms: _405  and  _408
REMARK  166  A    between atoms: _408  and  _409
REMARK  167  A    between atoms: _412  and  _414
REMARK  168  A    between atoms: _414  and  _415
REMARK  169  A    between atoms: _414  and  _417
REMARK  170  A    between atoms: _417  and  _418
REMARK  171  A    between atoms: _423  and  _424
REMARK  172  A    between atoms: _426  and  _428
REMARK  173  A    between atoms: _428  and  _429
REMARK  174  A    between atoms: _428  and  _431
REMARK  175  A    between atoms: _431  and  _432
REMARK  176  A    between atoms: _432  and  _433
REMARK  177  A    between atoms: _433  and  _434
REMARK  178  A    between atoms: _443  and  _445
REMARK  179  A    between atoms: _445  and  _446
REMARK  180  A    between atoms: _445  and  _448
REMARK  181  A    between atoms: _451  and  _453
REMARK  182  A    between atoms: _453  and  _454
REMARK  183  A    between atoms: _457  and  _459
REMARK  184  A    between atoms: _459  and  _460
REMARK  185  A    between atoms: _459  and  _462
REMARK  186  A    between atoms: _465  and  _467
REMARK  187  A    between atoms: _467  and  _468
REMARK  188  A    between atoms: _467  and  _470
REMARK  189  A    between atoms: _470  and  _471
REMARK  190  A    between atoms: _473  and  _475
REMARK  191  A    between atoms: _475  and  _476
REMARK  192  A    between atoms: _475  and  _478
REMARK  193  A    between atoms: _478  and  _479
REMARK  194  A    between atoms: _479  and  _480
REMARK  195  A    between atoms: _483  and  _485
REMARK  196  A    between atoms: _485  and  _486
REMARK  197  A    between atoms: _485  and  _488
REMARK  198  A    between atoms: _488  and  _489
REMARK  199  A    between atoms: _492  and  _494
REMARK  200  A    between atoms: _494  and  _495
REMARK  201  A    between atoms: _494  and  _497
REMARK  202  A    between atoms: _497  and  _498
REMARK  203  A    between atoms: _504  and  _506
REMARK  204  A    between atoms: _506  and  _507
REMARK  205  A    between atoms: _506  and  _509
REMARK  206  A    between atoms: _509  and  _510
REMARK  207  A    between atoms: _513  and  _515
REMARK  208  A    between atoms: _515  and  _516
REMARK  209  A    between atoms: _519  and  _521
REMARK  210  A    between atoms: _521  and  _522
REMARK  211  A    between atoms: _521  and  _524
REMARK  212  A    between atoms: _524  and  _525
REMARK  213  A    between atoms: _530  and  _531
REMARK  214  A    between atoms: _533  and  _535
REMARK  215  A    between atoms: _535  and  _536
REMARK  216  A    between atoms: _535  and  _538
REMARK  217  A    between atoms: _538  and  _539
REMARK  218  A    between atoms: _541  and  _543
REMARK  219  A    between atoms: _543  and  _544
REMARK  220  A    between atoms: _543  and  _546
REMARK  221  A    between atoms: _546  and  _547
REMARK  222  A    between atoms: _550  and  _552
REMARK  223  A    between atoms: _552  and  _553
REMARK  224  A    between atoms: _552  and  _555
REMARK  225  A    between atoms: _555  and  _556
REMARK  226  A    between atoms: _558  and  _560
REMARK  227  A    between atoms: _560  and  _561
REMARK  228  A    between atoms: _560  and  _563
REMARK  229  A    between atoms: _563  and  _564
REMARK  230  A    between atoms: _567  and  _569
REMARK  231  A    between atoms: _569  and  _570
REMARK  232  A    between atoms: _569  and  _572
REMARK  233  A    between atoms: _572  and  _573
REMARK  234  A    between atoms: _575  and  _577
REMARK  235  A    between atoms: _577  and  _578
REMARK  236  A    between atoms: _577  and  _580
REMARK  237  A    between atoms: _580  and  _581
REMARK  238  A    between atoms: _584  and  _586
REMARK  239  A    between atoms: _586  and  _587
REMARK  240  A    between atoms: _586  and  _589
REMARK  241  A    between atoms: _589  and  _590
REMARK  242  A    between atoms: _595  and  _597
REMARK  243  A    between atoms: _597  and  _598
REMARK  244  A    between atoms: _597  and  _600
REMARK  245  A    between atoms: _600  and  _601
REMARK  246  A    between atoms: _603  and  _605
REMARK  247  A    between atoms: _605  and  _606
REMARK  248  A    between atoms: _605  and  _608
REMARK  249  A    between atoms: _608  and  _609
REMARK  250  A    between atoms: _615  and  _617
REMARK  251  A    between atoms: _617  and  _618
REMARK  252  A    between atoms: _617  and  _620
REMARK  253  A    between atoms: _620  and  _621
REMARK  254  A    between atoms: _623  and  _625
REMARK  255  A    between atoms: _625  and  _626
REMARK  256  A    between atoms: _625  and  _628
REMARK  257  A    between atoms: _628  and  _629
REMARK  258  A    between atoms: _635  and  _637
REMARK  259  A    between atoms: _637  and  _638
REMARK  260  A    between atoms: _637  and  _640
REMARK  261  A    between atoms: _640  and  _641
REMARK  262  A    between atoms: _643  and  _645
REMARK  263  A    between atoms: _645  and  _646
REMARK  264  A    between atoms: _645  and  _648
REMARK  265  A    between atoms: _648  and  _649
REMARK  266  A    between atoms: _654  and  _656
REMARK  267  A    between atoms: _656  and  _657
REMARK  268  A    between atoms: _656  and  _659
REMARK  269  A    between atoms: _659  and  _660
REMARK  270  A    between atoms: _663  and  _665
REMARK  271  A    between atoms: _665  and  _666
REMARK  272  A    between atoms: _665  and  _668
REMARK  273  A    between atoms: _668  and  _669
REMARK  274  A    between atoms: _672  and  _674
REMARK  275  A    between atoms: _674  and  _675
REMARK  276  A    between atoms: _674  and  _677
REMARK  277  A    between atoms: _677  and  _678
REMARK  278  A    between atoms: _678  and  _679
REMARK  279  A    between atoms: _684  and  _686
REMARK  280  A    between atoms: _686  and  _687
REMARK  281  A    between atoms: _690  and  _692
REMARK  282  A    between atoms: _692  and  _693
REMARK  283  A    between atoms: _692  and  _695
REMARK  284  A    between atoms: _698  and  _700
REMARK  285  A    between atoms: _700  and  _701
REMARK  286  A    between atoms: _700  and  _703
REMARK  287  A    between atoms: _703  and  _704
REMARK  288  A    between atoms: _707  and  _709
REMARK  289  A    between atoms: _709  and  _710
REMARK  290  A    between atoms: _709  and  _712
REMARK  291  A    between atoms: _712  and  _713
REMARK  292  A    between atoms: _713  and  _714
REMARK  293  A    between atoms: _714  and  _715
REMARK  294  A    between atoms: _724  and  _726
REMARK  295  A    between atoms: _726  and  _727
REMARK  296  A    between atoms: _726  and  _729
REMARK  297  A    between atoms: _729  and  _730
REMARK  298  A    between atoms: _730  and  _731
REMARK  299  A    between atoms: _731  and  _732
REMARK  300  A    between atoms: _732  and  _733
REMARK                            x       y       z     vdW  Elec       q    Type
REMARK                         _______ _______ _______ _____ _____    ______ ____
ROOT
ATOM      1  O   HOH     1      95.109  19.047  20.851  0.00  0.00    +0.000 OA
ENDROOT
TORSDOF 0
REMARK  Name = ../refined-set-2016/4fys/4fys_pocket.pdb
REMARK  300 active torsions:
REMARK  status: ('A' for Active; 'I' for Inactive)
REMARK    1  A    between atoms: _1  and  _3
REMARK    2  A    between atoms: _3  and  _4
REMARK    3  A    between atoms: _3  and  _6
REMARK    4  A    between atoms: _6  and  _7
REMARK    5  A    between atoms: _7  and  _8
REMARK    6  A    between atoms: _13  and  _15
REMARK    7  A    between atoms: _15  and  _16
REMARK    8  A    between atoms: _15  and  _18
REMARK    9  A    between atoms: _18  and  _19
REMARK   10  A    between atoms: _19  and  _20
REMARK   11  A    between atoms: _22  and  _24
REMARK   12  A    between atoms: _24  and  _25
REMARK   13  A    between atoms: _24  and  _27
REMARK   14  A    between atoms: _27  and  _28
REMARK   15  A    between atoms: _28  and  _29
REMARK   16  A    between atoms: _34  and  _36
REMARK   17  A    between atoms: _36  and  _37
REMARK   18  A    between atoms: _40  and  _42
REMARK   19  A    between atoms: _42  and  _43
REMARK   20  A    between atoms: _42  and  _45
REMARK   21  A    between atoms: _45  and  _46
REMARK   22  A    between atoms: _51  and  _52
REMARK   23  A    between atoms: _54  and  _56
REMARK   24  A    between atoms: _56  and  _57
REMARK   25  A    between atoms: _56  and  _59
REMARK   26  A    between atoms: _59  and  _60
REMARK   27  A    between atoms: _63  and  _65
REMARK   28  A    between atoms: _65  and  _66
REMARK   29  A    between atoms: _65  and  _68
REMARK   30  A    between atoms: _68  and  _69
REMARK   31  A    between atoms: _75  and  _77
REMARK   32  A    between atoms: _77  and  _78
REMARK   33  A    between atoms: _77  and  _80
REMARK   34  A    between atoms: _80  and  _81
REMARK   35  A    between atoms: _86  and  _88
REMARK   36  A    between atoms: _88  and  _89
REMARK   37  A    between atoms: _92  and  _94
REMARK   38  A    between atoms: _94  and  _95
REMARK   39  A    between atoms: _97  and  _99
REMARK   40  A    between atoms: _99  and  _100
REMARK   41  A    between atoms: _103  and  _105
REMARK   42  A    between atoms: _105  and  _106
REMARK   43  A    between atoms: _105  and  _108
REMARK   44  A    between atoms: _108  and  _109
REMARK   45  A    between atoms: _109  and  _110
REMARK   46  A    between atoms: _112  and  _114
REMARK   47  A    between atoms: _114  and  _115
REMARK   48  A    between atoms: _114  and  _117
REMARK   49  A    between atoms: _117  and  _118
REMARK   50  A    between atoms: _118  and  _119
REMARK   51  A    between atoms: _122  and  _124
REMARK   52  A    between atoms: _124  and  _125
REMARK   53  A    between atoms: _124  and  _127
REMARK   54  A    between atoms: _127  and  _128
REMARK   55  A    between atoms: _133  and  _135
REMARK   56  A    between atoms: _135  and  _136
REMARK   57  A    between atoms: _135  and  _138
REMARK   58  A    between atoms: _138  and  _139
REMARK   59  A    between atoms: _142  and  _144
REMARK   60  A    between atoms: _144  and  _145
REMARK   61  A    between atoms: _144  and  _147
REMARK   62  A    between atoms: _147  and  _148
REMARK   63  A    between atoms: _153  and  _154
REMARK   64  A    between atoms: _156  and  _158
REMARK   65  A    between atoms: _158  and  _159
REMARK   66  A    between atoms: _158  and  _161
REMARK   67  A    between atoms: _161  and  _162
REMARK   68  A    between atoms: _162  and  _163
REMARK   69  A    between atoms: _163  and  _164
REMARK   70  A    between atoms: _173  and  _175
REMARK   71  A    between atoms: _175  and  _176
REMARK   72  A    between atoms: _175  and  _178
REMARK   73  A    between atoms: _178  and  _179
REMARK   74  A    between atoms: _184  and  _186
REMARK   75  A    between atoms: _186  and  _187
REMARK   76  A    between atoms: _186  and  _189
REMARK   77  A    between atoms: _189  and  _190
REMARK   78  A    between atoms: _192  and  _194
REMARK   79  A    between atoms: _194  and  _195
REMARK   80  A    between atoms: _194  and  _197
REMARK   81  A    between atoms: _197  and  _198
REMARK   82  A    between atoms: _200  and  _202
REMARK   83  A    between atoms: _202  and  _203
REMARK   84  A    between atoms: _202  and  _205
REMARK   85  A    between atoms: _205  and  _206
REMARK   86  A    between atoms: _206  and  _207
REMARK   87  A    between atoms: _210  and  _212
REMARK   88  A    between atoms: _212  and  _213
REMARK   89  A    between atoms: _212  and  _215
REMARK   90  A    between atoms: _215  and  _216
REMARK   91  A    between atoms: _216  and  _217
REMARK   92  A    between atoms: _217  and  _218
REMARK   93  A    between atoms: _227  and  _229
REMARK   94  A    between atoms: _229  and  _230
REMARK   95  A    between atoms: _229  and  _232
REMARK   96  A    between atoms: _235  and  _237
REMARK   97  A    between atoms: _237  and  _238
REMARK   98  A    between atoms: _237  and  _240
REMARK   99  A    between atoms: _240  and  _241
REMARK  100  A    between atoms: _244  and  _246
REMARK  101  A    between atoms: _246  and  _247
REMARK  102  A    between atoms: _246  and  _249
REMARK  103  A    between atoms: _252  and  _254
REMARK  104  A    between atoms: _254  and  _255
REMARK  105  A    between atoms: _254  and  _257
REMARK  106  A    between atoms: _257  and  _258
REMARK  107  A    between atoms: _261  and  _263
REMARK  108  A    between atoms: _263  and  _264
REMARK  109  A    between atoms: _267  and  _269
REMARK  110  A    between atoms: _269  and  _270
REMARK  111  A    between atoms: _269  and  _272
REMARK  112  A    between atoms: _272  and  _273
REMARK  113  A    between atoms: _278  and  _280
REMARK  114  A    between atoms: _280  and  _281
REMARK  115  A    between atoms: _280  and  _283
REMARK  116  A    between atoms: _283  and  _284
REMARK  117  A    between atoms: _284  and  _285
REMARK  118  A    between atoms: _288  and  _290
REMARK  119  A    between atoms: _290  and  _291
REMARK  120  A    between atoms: _290  and  _293
REMARK  121  A    between atoms: _293  and  _294
REMARK  122  A    between atoms: _299  and  _301
REMARK  123  A    between atoms: _301  and  _302
REMARK  124  A    between atoms: _301  and  _304
REMARK  125  A    between atoms: _304  and  _305
REMARK  126  A    between atoms: _315  and  _317
REMARK  127  A    between atoms: _317  and  _318
REMARK  128  A    between atoms: _317  and  _320
REMARK  129  A    between atoms: _320  and  _321
REMARK  130  A    between atoms: _324  and  _326
REMARK  131  A    between atoms: _326  and  _327
REMARK  132  A    between atoms: _326  and  _329
REMARK  133  A    between atoms: _329  and  _330
REMARK  134  A    between atoms: _335  and  _337
REMARK  135  A    between atoms: _337  and  _338
REMARK  136  A    between atoms: _337  and  _340
REMARK  137  A    between atoms: _340  and  _341
REMARK  138  A    between atoms: _341  and  _342
REMARK  139  A    between atoms: _345  and  _347
REMARK  140  A    between atoms: _347  and  _348
REMARK  141  A    between atoms: _351  and  _353
REMARK  142  A    between atoms: _353  and  _354
REMARK  143  A    between atoms: _353  and  _356
REMARK  144  A    between atoms: _356  and  _357
REMARK  145  A    between atoms: _359  and  _361
REMARK  146  A    between atoms: _361  and  _362
REMARK  147  A    between atoms: _361  and  _364
REMARK  148  A    between atoms: _364  and  _365
REMARK  149  A    between atoms: _365  and  _366
REMARK  150  A    between atoms: _369  and  _371
REMARK  151  A    between atoms: _371  and  _372
REMARK  152  A    between atoms: _371  and  _374
REMARK  153  A    between atoms: _374  and  _375
REMARK  154  A    between atoms: _380  and  _381
REMARK  155  A    between atoms: _383  and  _385
REMARK  156  A    between atoms: _385  and  _386
REMARK  157  A    between atoms: _385  and  _388
REMARK  158  A    between atoms: _388  and  _389
REMARK  159  A    between atoms: _392  and  _394
REMARK  160  A    between atoms: _394  and  _395
REMARK  161  A    between atoms: _394  and  _397
REMARK  162  A    between atoms: _397  and  _398
REMARK  163  A    between atoms: _403  and  _405
REMARK  164  A    between atoms: _405  and  _406
REMARK  165  A    between atoms: _405  and  _408
REMARK  166  A    between atoms: _408  and  _409
REMARK  167  A    between atoms: _412  and  _414
REMARK  168  A    between atoms: _414  and  _415
REMARK  169  A    between atoms: _414  and  _417
REMARK  170  A    between atoms: _417  and  _418
REMARK  171  A    between atoms: _423  and  _424
REMARK  172  A    between atoms: _426  and  _428
REMARK  173  A    between atoms: _428  and  _429
REMARK  174  A    between atoms: _428  and  _431
REMARK  175  A    between atoms: _431  and  _432
REMARK  176  A    between atoms: _432  and  _433
REMARK  177  A    between atoms: _433  and  _434
REMARK  178  A    between atoms: _443  and  _445
REMARK  179  A    between atoms: _445  and  _446
REMARK  180  A    between atoms: _445  and  _448
REMARK  181  A    between atoms: _451  and  _453
REMARK  182  A    between atoms: _453  and  _454
REMARK  183  A    between atoms: _457  and  _459
REMARK  184  A    between atoms: _459  and  _460
REMARK  185  A    between atoms: _459  and  _462
REMARK  186  A    between atoms: _465  and  _467
REMARK  187  A    between atoms: _467  and  _468
REMARK  188  A    between atoms: _467  and  _470
REMARK  189  A    between atoms: _470  and  _471
REMARK  190  A    between atoms: _473  and  _475
REMARK  191  A    between atoms: _475  and  _476
REMARK  192  A    between atoms: _475  and  _478
REMARK  193  A    between atoms: _478  and  _479
REMARK  194  A    between atoms: _479  and  _480
REMARK  195  A    between atoms: _483  and  _485
REMARK  196  A    between atoms: _485  and  _486
REMARK  197  A    between atoms: _485  and  _488
REMARK  198  A    between atoms: _488  and  _489
REMARK  199  A    between atoms: _492  and  _494
REMARK  200  A    between atoms: _494  and  _495
REMARK  201  A    between atoms: _494  and  _497
REMARK  202  A    between atoms: _497  and  _498
REMARK  203  A    between atoms: _504  and  _506
REMARK  204  A    between atoms: _506  and  _507
REMARK  205  A    between atoms: _506  and  _509
REMARK  206  A    between atoms: _509  and  _510
REMARK  207  A    between atoms: _513  and  _515
REMARK  208  A    between atoms: _515  and  _516
REMARK  209  A    between atoms: _519  and  _521
REMARK  210  A    between atoms: _521  and  _522
REMARK  211  A    between atoms: _521  and  _524
REMARK  212  A    between atoms: _524  and  _525
REMARK  213  A    between atoms: _530  and  _531
REMARK  214  A    between atoms: _533  and  _535
REMARK  215  A    between atoms: _535  and  _536
REMARK  216  A    between atoms: _535  and  _538
REMARK  217  A    between atoms: _538  and  _539
REMARK  218  A    between atoms: _541  and  _543
REMARK  219  A    between atoms: _543  and  _544
REMARK  220  A    between atoms: _543  and  _546
REMARK  221  A    between atoms: _546  and  _547
REMARK  222  A    between atoms: _550  and  _552
REMARK  223  A    between atoms: _552  and  _553
REMARK  224  A    between atoms: _552  and  _555
REMARK  225  A    between atoms: _555  and  _556
REMARK  226  A    between atoms: _558  and  _560
REMARK  227  A    between atoms: _560  and  _561
REMARK  228  A    between atoms: _560  and  _563
REMARK  229  A    between atoms: _563  and  _564
REMARK  230  A    between atoms: _567  and  _569
REMARK  231  A    between atoms: _569  and  _570
REMARK  232  A    between atoms: _569  and  _572
REMARK  233  A    between atoms: _572  and  _573
REMARK  234  A    between atoms: _575  and  _577
REMARK  235  A    between atoms: _577  and  _578
REMARK  236  A    between atoms: _577  and  _580
REMARK  237  A    between atoms: _580  and  _581
REMARK  238  A    between atoms: _584  and  _586
REMARK  239  A    between atoms: _586  and  _587
REMARK  240  A    between atoms: _586  and  _589
REMARK  241  A    between atoms: _589  and  _590
REMARK  242  A    between atoms: _595  and  _597
REMARK  243  A    between atoms: _597  and  _598
REMARK  244  A    between atoms: _597  and  _600
REMARK  245  A    between atoms: _600  and  _601
REMARK  246  A    between atoms: _603  and  _605
REMARK  247  A    between atoms: _605  and  _606
REMARK  248  A    between atoms: _605  and  _608
REMARK  249  A    between atoms: _608  and  _609
REMARK  250  A    between atoms: _615  and  _617
REMARK  251  A    between atoms: _617  and  _618
REMARK  252  A    between atoms: _617  and  _620
REMARK  253  A    between atoms: _620  and  _621
REMARK  254  A    between atoms: _623  and  _625
REMARK  255  A    between atoms: _625  and  _626
REMARK  256  A    between atoms: _625  and  _628
REMARK  257  A    between atoms: _628  and  _629
REMARK  258  A    between atoms: _635  and  _637
REMARK  259  A    between atoms: _637  and  _638
REMARK  260  A    between atoms: _637  and  _640
REMARK  261  A    between atoms: _640  and  _641
REMARK  262  A    between atoms: _643  and  _645
REMARK  263  A    between atoms: _645  and  _646
REMARK  264  A    between atoms: _645  and  _648
REMARK  265  A    between atoms: _648  and  _649
REMARK  266  A    between atoms: _654  and  _656
REMARK  267  A    between atoms: _656  and  _657
REMARK  268  A    between atoms: _656  and  _659
REMARK  269  A    between atoms: _659  and  _660
REMARK  270  A    between atoms: _663  and  _665
REMARK  271  A    between atoms: _665  and  _666
REMARK  272  A    between atoms: _665  and  _668
REMARK  273  A    between atoms: _668  and  _669
REMARK  274  A    between atoms: _672  and  _674
REMARK  275  A    between atoms: _674  and  _675
REMARK  276  A    between atoms: _674  and  _677
REMARK  277  A    between atoms: _677  and  _678
REMARK  278  A    between atoms: _678  and  _679
REMARK  279  A    between atoms: _684  and  _686
REMARK  280  A    between atoms: _686  and  _687
REMARK  281  A    between atoms: _690  and  _692
REMARK  282  A    between atoms: _692  and  _693
REMARK  283  A    between atoms: _692  and  _695
REMARK  284  A    between atoms: _698  and  _700
REMARK  285  A    between atoms: _700  and  _701
REMARK  286  A    between atoms: _700  and  _703
REMARK  287  A    between atoms: _703  and  _704
REMARK  288  A    between atoms: _707  and  _709
REMARK  289  A    between atoms: _709  and  _710
REMARK  290  A    between atoms: _709  and  _712
REMARK  291  A    between atoms: _712  and  _713
REMARK  292  A    between atoms: _713  and  _714
REMARK  293  A    between atoms: _714  and  _715
REMARK  294  A    between atoms: _724  and  _726
REMARK  295  A    between atoms: _726  and  _727
REMARK  296  A    between atoms: _726  and  _729
REMARK  297  A    between atoms: _729  and  _730
REMARK  298  A    between atoms: _730  and  _731
REMARK  299  A    between atoms: _731  and  _732
REMARK  300  A    between atoms: _732  and  _733
REMARK                            x       y       z     vdW  Elec       q    Type
REMARK                         _______ _______ _______ _____ _____    ______ ____
ROOT
ATOM      1  O   HOH     1      99.824  17.195  22.667  0.00  0.00    +0.000 OA
ENDROOT
TORSDOF 0
REMARK  Name = ../refined-set-2016/4fys/4fys_pocket.pdb
REMARK  300 active torsions:
REMARK  status: ('A' for Active; 'I' for Inactive)
REMARK    1  A    between atoms: _1  and  _3
REMARK    2  A    between atoms: _3  and  _4
REMARK    3  A    between atoms: _3  and  _6
REMARK    4  A    between atoms: _6  and  _7
REMARK    5  A    between atoms: _7  and  _8
REMARK    6  A    between atoms: _13  and  _15
REMARK    7  A    between atoms: _15  and  _16
REMARK    8  A    between atoms: _15  and  _18
REMARK    9  A    between atoms: _18  and  _19
REMARK   10  A    between atoms: _19  and  _20
REMARK   11  A    between atoms: _22  and  _24
REMARK   12  A    between atoms: _24  and  _25
REMARK   13  A    between atoms: _24  and  _27
REMARK   14  A    between atoms: _27  and  _28
REMARK   15  A    between atoms: _28  and  _29
REMARK   16  A    between atoms: _34  and  _36
REMARK   17  A    between atoms: _36  and  _37
REMARK   18  A    between atoms: _40  and  _42
REMARK   19  A    between atoms: _42  and  _43
REMARK   20  A    between atoms: _42  and  _45
REMARK   21  A    between atoms: _45  and  _46
REMARK   22  A    between atoms: _51  and  _52
REMARK   23  A    between atoms: _54  and  _56
REMARK   24  A    between atoms: _56  and  _57
REMARK   25  A    between atoms: _56  and  _59
REMARK   26  A    between atoms: _59  and  _60
REMARK   27  A    between atoms: _63  and  _65
REMARK   28  A    between atoms: _65  and  _66
REMARK   29  A    between atoms: _65  and  _68
REMARK   30  A    between atoms: _68  and  _69
REMARK   31  A    between atoms: _75  and  _77
REMARK   32  A    between atoms: _77  and  _78
REMARK   33  A    between atoms: _77  and  _80
REMARK   34  A    between atoms: _80  and  _81
REMARK   35  A    between atoms: _86  and  _88
REMARK   36  A    between atoms: _88  and  _89
REMARK   37  A    between atoms: _92  and  _94
REMARK   38  A    between atoms: _94  and  _95
REMARK   39  A    between atoms: _97  and  _99
REMARK   40  A    between atoms: _99  and  _100
REMARK   41  A    between atoms: _103  and  _105
REMARK   42  A    between atoms: _105  and  _106
REMARK   43  A    between atoms: _105  and  _108
REMARK   44  A    between atoms: _108  and  _109
REMARK   45  A    between atoms: _109  and  _110
REMARK   46  A    between atoms: _112  and  _114
REMARK   47  A    between atoms: _114  and  _115
REMARK   48  A    between atoms: _114  and  _117
REMARK   49  A    between atoms: _117  and  _118
REMARK   50  A    between atoms: _118  and  _119
REMARK   51  A    between atoms: _122  and  _124
REMARK   52  A    between atoms: _124  and  _125
REMARK   53  A    between atoms: _124  and  _127
REMARK   54  A    between atoms: _127  and  _128
REMARK   55  A    between atoms: _133  and  _135
REMARK   56  A    between atoms: _135  and  _136
REMARK   57  A    between atoms: _135  and  _138
REMARK   58  A    between atoms: _138  and  _139
REMARK   59  A    between atoms: _142  and  _144
REMARK   60  A    between atoms: _144  and  _145
REMARK   61  A    between atoms: _144  and  _147
REMARK   62  A    between atoms: _147  and  _148
REMARK   63  A    between atoms: _153  and  _154
REMARK   64  A    between atoms: _156  and  _158
REMARK   65  A    between atoms: _158  and  _159
REMARK   66  A    between atoms: _158  and  _161
REMARK   67  A    between atoms: _161  and  _162
REMARK   68  A    between atoms: _162  and  _163
REMARK   69  A    between atoms: _163  and  _164
REMARK   70  A    between atoms: _173  and  _175
REMARK   71  A    between atoms: _175  and  _176
REMARK   72  A    between atoms: _175  and  _178
REMARK   73  A    between atoms: _178  and  _179
REMARK   74  A    between atoms: _184  and  _186
REMARK   75  A    between atoms: _186  and  _187
REMARK   76  A    between atoms: _186  and  _189
REMARK   77  A    between atoms: _189  and  _190
REMARK   78  A    between atoms: _192  and  _194
REMARK   79  A    between atoms: _194  and  _195
REMARK   80  A    between atoms: _194  and  _197
REMARK   81  A    between atoms: _197  and  _198
REMARK   82  A    between atoms: _200  and  _202
REMARK   83  A    between atoms: _202  and  _203
REMARK   84  A    between atoms: _202  and  _205
REMARK   85  A    between atoms: _205  and  _206
REMARK   86  A    between atoms: _206  and  _207
REMARK   87  A    between atoms: _210  and  _212
REMARK   88  A    between atoms: _212  and  _213
REMARK   89  A    between atoms: _212  and  _215
REMARK   90  A    between atoms: _215  and  _216
REMARK   91  A    between atoms: _216  and  _217
REMARK   92  A    between atoms: _217  and  _218
REMARK   93  A    between atoms: _227  and  _229
REMARK   94  A    between atoms: _229  and  _230
REMARK   95  A    between atoms: _229  and  _232
REMARK   96  A    between atoms: _235  and  _237
REMARK   97  A    between atoms: _237  and  _238
REMARK   98  A    between atoms: _237  and  _240
REMARK   99  A    between atoms: _240  and  _241
REMARK  100  A    between atoms: _244  and  _246
REMARK  101  A    between atoms: _246  and  _247
REMARK  102  A    between atoms: _246  and  _249
REMARK  103  A    between atoms: _252  and  _254
REMARK  104  A    between atoms: _254  and  _255
REMARK  105  A    between atoms: _254  and  _257
REMARK  106  A    between atoms: _257  and  _258
REMARK  107  A    between atoms: _261  and  _263
REMARK  108  A    between atoms: _263  and  _264
REMARK  109  A    between atoms: _267  and  _269
REMARK  110  A    between atoms: _269  and  _270
REMARK  111  A    between atoms: _269  and  _272
REMARK  112  A    between atoms: _272  and  _273
REMARK  113  A    between atoms: _278  and  _280
REMARK  114  A    between atoms: _280  and  _281
REMARK  115  A    between atoms: _280  and  _283
REMARK  116  A    between atoms: _283  and  _284
REMARK  117  A    between atoms: _284  and  _285
REMARK  118  A    between atoms: _288  and  _290
REMARK  119  A    between atoms: _290  and  _291
REMARK  120  A    between atoms: _290  and  _293
REMARK  121  A    between atoms: _293  and  _294
REMARK  122  A    between atoms: _299  and  _301
REMARK  123  A    between atoms: _301  and  _302
REMARK  124  A    between atoms: _301  and  _304
REMARK  125  A    between atoms: _304  and  _305
REMARK  126  A    between atoms: _315  and  _317
REMARK  127  A    between atoms: _317  and  _318
REMARK  128  A    between atoms: _317  and  _320
REMARK  129  A    between atoms: _320  and  _321
REMARK  130  A    between atoms: _324  and  _326
REMARK  131  A    between atoms: _326  and  _327
REMARK  132  A    between atoms: _326  and  _329
REMARK  133  A    between atoms: _329  and  _330
REMARK  134  A    between atoms: _335  and  _337
REMARK  135  A    between atoms: _337  and  _338
REMARK  136  A    between atoms: _337  and  _340
REMARK  137  A    between atoms: _340  and  _341
REMARK  138  A    between atoms: _341  and  _342
REMARK  139  A    between atoms: _345  and  _347
REMARK  140  A    between atoms: _347  and  _348
REMARK  141  A    between atoms: _351  and  _353
REMARK  142  A    between atoms: _353  and  _354
REMARK  143  A    between atoms: _353  and  _356
REMARK  144  A    between atoms: _356  and  _357
REMARK  145  A    between atoms: _359  and  _361
REMARK  146  A    between atoms: _361  and  _362
REMARK  147  A    between atoms: _361  and  _364
REMARK  148  A    between atoms: _364  and  _365
REMARK  149  A    between atoms: _365  and  _366
REMARK  150  A    between atoms: _369  and  _371
REMARK  151  A    between atoms: _371  and  _372
REMARK  152  A    between atoms: _371  and  _374
REMARK  153  A    between atoms: _374  and  _375
REMARK  154  A    between atoms: _380  and  _381
REMARK  155  A    between atoms: _383  and  _385
REMARK  156  A    between atoms: _385  and  _386
REMARK  157  A    between atoms: _385  and  _388
REMARK  158  A    between atoms: _388  and  _389
REMARK  159  A    between atoms: _392  and  _394
REMARK  160  A    between atoms: _394  and  _395
REMARK  161  A    between atoms: _394  and  _397
REMARK  162  A    between atoms: _397  and  _398
REMARK  163  A    between atoms: _403  and  _405
REMARK  164  A    between atoms: _405  and  _406
REMARK  165  A    between atoms: _405  and  _408
REMARK  166  A    between atoms: _408  and  _409
REMARK  167  A    between atoms: _412  and  _414
REMARK  168  A    between atoms: _414  and  _415
REMARK  169  A    between atoms: _414  and  _417
REMARK  170  A    between atoms: _417  and  _418
REMARK  171  A    between atoms: _423  and  _424
REMARK  172  A    between atoms: _426  and  _428
REMARK  173  A    between atoms: _428  and  _429
REMARK  174  A    between atoms: _428  and  _431
REMARK  175  A    between atoms: _431  and  _432
REMARK  176  A    between atoms: _432  and  _433
REMARK  177  A    between atoms: _433  and  _434
REMARK  178  A    between atoms: _443  and  _445
REMARK  179  A    between atoms: _445  and  _446
REMARK  180  A    between atoms: _445  and  _448
REMARK  181  A    between atoms: _451  and  _453
REMARK  182  A    between atoms: _453  and  _454
REMARK  183  A    between atoms: _457  and  _459
REMARK  184  A    between atoms: _459  and  _460
REMARK  185  A    between atoms: _459  and  _462
REMARK  186  A    between atoms: _465  and  _467
REMARK  187  A    between atoms: _467  and  _468
REMARK  188  A    between atoms: _467  and  _470
REMARK  189  A    between atoms: _470  and  _471
REMARK  190  A    between atoms: _473  and  _475
REMARK  191  A    between atoms: _475  and  _476
REMARK  192  A    between atoms: _475  and  _478
REMARK  193  A    between atoms: _478  and  _479
REMARK  194  A    between atoms: _479  and  _480
REMARK  195  A    between atoms: _483  and  _485
REMARK  196  A    between atoms: _485  and  _486
REMARK  197  A    between atoms: _485  and  _488
REMARK  198  A    between atoms: _488  and  _489
REMARK  199  A    between atoms: _492  and  _494
REMARK  200  A    between atoms: _494  and  _495
REMARK  201  A    between atoms: _494  and  _497
REMARK  202  A    between atoms: _497  and  _498
REMARK  203  A    between atoms: _504  and  _506
REMARK  204  A    between atoms: _506  and  _507
REMARK  205  A    between atoms: _506  and  _509
REMARK  206  A    between atoms: _509  and  _510
REMARK  207  A    between atoms: _513  and  _515
REMARK  208  A    between atoms: _515  and  _516
REMARK  209  A    between atoms: _519  and  _521
REMARK  210  A    between atoms: _521  and  _522
REMARK  211  A    between atoms: _521  and  _524
REMARK  212  A    between atoms: _524  and  _525
REMARK  213  A    between atoms: _530  and  _531
REMARK  214  A    between atoms: _533  and  _535
REMARK  215  A    between atoms: _535  and  _536
REMARK  216  A    between atoms: _535  and  _538
REMARK  217  A    between atoms: _538  and  _539
REMARK  218  A    between atoms: _541  and  _543
REMARK  219  A    between atoms: _543  and  _544
REMARK  220  A    between atoms: _543  and  _546
REMARK  221  A    between atoms: _546  and  _547
REMARK  222  A    between atoms: _550  and  _552
REMARK  223  A    between atoms: _552  and  _553
REMARK  224  A    between atoms: _552  and  _555
REMARK  225  A    between atoms: _555  and  _556
REMARK  226  A    between atoms: _558  and  _560
REMARK  227  A    between atoms: _560  and  _561
REMARK  228  A    between atoms: _560  and  _563
REMARK  229  A    between atoms: _563  and  _564
REMARK  230  A    between atoms: _567  and  _569
REMARK  231  A    between atoms: _569  and  _570
REMARK  232  A    between atoms: _569  and  _572
REMARK  233  A    between atoms: _572  and  _573
REMARK  234  A    between atoms: _575  and  _577
REMARK  235  A    between atoms: _577  and  _578
REMARK  236  A    between atoms: _577  and  _580
REMARK  237  A    between atoms: _580  and  _581
REMARK  238  A    between atoms: _584  and  _586
REMARK  239  A    between atoms: _586  and  _587
REMARK  240  A    between atoms: _586  and  _589
REMARK  241  A    between atoms: _589  and  _590
REMARK  242  A    between atoms: _595  and  _597
REMARK  243  A    between atoms: _597  and  _598
REMARK  244  A    between atoms: _597  and  _600
REMARK  245  A    between atoms: _600  and  _601
REMARK  246  A    between atoms: _603  and  _605
REMARK  247  A    between atoms: _605  and  _606
REMARK  248  A    between atoms: _605  and  _608
REMARK  249  A    between atoms: _608  and  _609
REMARK  250  A    between atoms: _615  and  _617
REMARK  251  A    between atoms: _617  and  _618
REMARK  252  A    between atoms: _617  and  _620
REMARK  253  A    between atoms: _620  and  _621
REMARK  254  A    between atoms: _623  and  _625
REMARK  255  A    between atoms: _625  and  _626
REMARK  256  A    between atoms: _625  and  _628
REMARK  257  A    between atoms: _628  and  _629
REMARK  258  A    between atoms: _635  and  _637
REMARK  259  A    between atoms: _637  and  _638
REMARK  260  A    between atoms: _637  and  _640
REMARK  261  A    between atoms: _640  and  _641
REMARK  262  A    between atoms: _643  and  _645
REMARK  263  A    between atoms: _645  and  _646
REMARK  264  A    between atoms: _645  and  _648
REMARK  265  A    between atoms: _648  and  _649
REMARK  266  A    between atoms: _654  and  _656
REMARK  267  A    between atoms: _656  and  _657
REMARK  268  A    between atoms: _656  and  _659
REMARK  269  A    between atoms: _659  and  _660
REMARK  270  A    between atoms: _663  and  _665
REMARK  271  A    between atoms: _665  and  _666
REMARK  272  A    between atoms: _665  and  _668
REMARK  273  A    between atoms: _668  and  _669
REMARK  274  A    between atoms: _672  and  _674
REMARK  275  A    between atoms: _674  and  _675
REMARK  276  A    between atoms: _674  and  _677
REMARK  277  A    between atoms: _677  and  _678
REMARK  278  A    between atoms: _678  and  _679
REMARK  279  A    between atoms: _684  and  _686
REMARK  280  A    between atoms: _686  and  _687
REMARK  281  A    between atoms: _690  and  _692
REMARK  282  A    between atoms: _692  and  _693
REMARK  283  A    between atoms: _692  and  _695
REMARK  284  A    between atoms: _698  and  _700
REMARK  285  A    between atoms: _700  and  _701
REMARK  286  A    between atoms: _700  and  _703
REMARK  287  A    between atoms: _703  and  _704
REMARK  288  A    between atoms: _707  and  _709
REMARK  289  A    between atoms: _709  and  _710
REMARK  290  A    between atoms: _709  and  _712
REMARK  291  A    between atoms: _712  and  _713
REMARK  292  A    between atoms: _713  and  _714
REMARK  293  A    between atoms: _714  and  _715
REMARK  294  A    between atoms: _724  and  _726
REMARK  295  A    between atoms: _726  and  _727
REMARK  296  A    between atoms: _726  and  _729
REMARK  297  A    between atoms: _729  and  _730
REMARK  298  A    between atoms: _730  and  _731
REMARK  299  A    between atoms: _731  and  _732
REMARK  300  A    between atoms: _732  and  _733
REMARK                            x       y       z     vdW  Elec       q    Type
REMARK                         _______ _______ _______ _____ _____    ______ ____
ROOT
ATOM      1  O   HOH     1      93.470  11.446  12.941  0.00  0.00    +0.000 OA
ENDROOT
TORSDOF 0
REMARK  Name = ../refined-set-2016/4fys/4fys_pocket.pdb
REMARK  300 active torsions:
REMARK  status: ('A' for Active; 'I' for Inactive)
REMARK    1  A    between atoms: _1  and  _3
REMARK    2  A    between atoms: _3  and  _4
REMARK    3  A    between atoms: _3  and  _6
REMARK    4  A    between atoms: _6  and  _7
REMARK    5  A    between atoms: _7  and  _8
REMARK    6  A    between atoms: _13  and  _15
REMARK    7  A    between atoms: _15  and  _16
REMARK    8  A    between atoms: _15  and  _18
REMARK    9  A    between atoms: _18  and  _19
REMARK   10  A    between atoms: _19  and  _20
REMARK   11  A    between atoms: _22  and  _24
REMARK   12  A    between atoms: _24  and  _25
REMARK   13  A    between atoms: _24  and  _27
REMARK   14  A    between atoms: _27  and  _28
REMARK   15  A    between atoms: _28  and  _29
REMARK   16  A    between atoms: _34  and  _36
REMARK   17  A    between atoms: _36  and  _37
REMARK   18  A    between atoms: _40  and  _42
REMARK   19  A    between atoms: _42  and  _43
REMARK   20  A    between atoms: _42  and  _45
REMARK   21  A    between atoms: _45  and  _46
REMARK   22  A    between atoms: _51  and  _52
REMARK   23  A    between atoms: _54  and  _56
REMARK   24  A    between atoms: _56  and  _57
REMARK   25  A    between atoms: _56  and  _59
REMARK   26  A    between atoms: _59  and  _60
REMARK   27  A    between atoms: _63  and  _65
REMARK   28  A    between atoms: _65  and  _66
REMARK   29  A    between atoms: _65  and  _68
REMARK   30  A    between atoms: _68  and  _69
REMARK   31  A    between atoms: _75  and  _77
REMARK   32  A    between atoms: _77  and  _78
REMARK   33  A    between atoms: _77  and  _80
REMARK   34  A    between atoms: _80  and  _81
REMARK   35  A    between atoms: _86  and  _88
REMARK   36  A    between atoms: _88  and  _89
REMARK   37  A    between atoms: _92  and  _94
REMARK   38  A    between atoms: _94  and  _95
REMARK   39  A    between atoms: _97  and  _99
REMARK   40  A    between atoms: _99  and  _100
REMARK   41  A    between atoms: _103  and  _105
REMARK   42  A    between atoms: _105  and  _106
REMARK   43  A    between atoms: _105  and  _108
REMARK   44  A    between atoms: _108  and  _109
REMARK   45  A    between atoms: _109  and  _110
REMARK   46  A    between atoms: _112  and  _114
REMARK   47  A    between atoms: _114  and  _115
REMARK   48  A    between atoms: _114  and  _117
REMARK   49  A    between atoms: _117  and  _118
REMARK   50  A    between atoms: _118  and  _119
REMARK   51  A    between atoms: _122  and  _124
REMARK   52  A    between atoms: _124  and  _125
REMARK   53  A    between atoms: _124  and  _127
REMARK   54  A    between atoms: _127  and  _128
REMARK   55  A    between atoms: _133  and  _135
REMARK   56  A    between atoms: _135  and  _136
REMARK   57  A    between atoms: _135  and  _138
REMARK   58  A    between atoms: _138  and  _139
REMARK   59  A    between atoms: _142  and  _144
REMARK   60  A    between atoms: _144  and  _145
REMARK   61  A    between atoms: _144  and  _147
REMARK   62  A    between atoms: _147  and  _148
REMARK   63  A    between atoms: _153  and  _154
REMARK   64  A    between atoms: _156  and  _158
REMARK   65  A    between atoms: _158  and  _159
REMARK   66  A    between atoms: _158  and  _161
REMARK   67  A    between atoms: _161  and  _162
REMARK   68  A    between atoms: _162  and  _163
REMARK   69  A    between atoms: _163  and  _164
REMARK   70  A    between atoms: _173  and  _175
REMARK   71  A    between atoms: _175  and  _176
REMARK   72  A    between atoms: _175  and  _178
REMARK   73  A    between atoms: _178  and  _179
REMARK   74  A    between atoms: _184  and  _186
REMARK   75  A    between atoms: _186  and  _187
REMARK   76  A    between atoms: _186  and  _189
REMARK   77  A    between atoms: _189  and  _190
REMARK   78  A    between atoms: _192  and  _194
REMARK   79  A    between atoms: _194  and  _195
REMARK   80  A    between atoms: _194  and  _197
REMARK   81  A    between atoms: _197  and  _198
REMARK   82  A    between atoms: _200  and  _202
REMARK   83  A    between atoms: _202  and  _203
REMARK   84  A    between atoms: _202  and  _205
REMARK   85  A    between atoms: _205  and  _206
REMARK   86  A    between atoms: _206  and  _207
REMARK   87  A    between atoms: _210  and  _212
REMARK   88  A    between atoms: _212  and  _213
REMARK   89  A    between atoms: _212  and  _215
REMARK   90  A    between atoms: _215  and  _216
REMARK   91  A    between atoms: _216  and  _217
REMARK   92  A    between atoms: _217  and  _218
REMARK   93  A    between atoms: _227  and  _229
REMARK   94  A    between atoms: _229  and  _230
REMARK   95  A    between atoms: _229  and  _232
REMARK   96  A    between atoms: _235  and  _237
REMARK   97  A    between atoms: _237  and  _238
REMARK   98  A    between atoms: _237  and  _240
REMARK   99  A    between atoms: _240  and  _241
REMARK  100  A    between atoms: _244  and  _246
REMARK  101  A    between atoms: _246  and  _247
REMARK  102  A    between atoms: _246  and  _249
REMARK  103  A    between atoms: _252  and  _254
REMARK  104  A    between atoms: _254  and  _255
REMARK  105  A    between atoms: _254  and  _257
REMARK  106  A    between atoms: _257  and  _258
REMARK  107  A    between atoms: _261  and  _263
REMARK  108  A    between atoms: _263  and  _264
REMARK  109  A    between atoms: _267  and  _269
REMARK  110  A    between atoms: _269  and  _270
REMARK  111  A    between atoms: _269  and  _272
REMARK  112  A    between atoms: _272  and  _273
REMARK  113  A    between atoms: _278  and  _280
REMARK  114  A    between atoms: _280  and  _281
REMARK  115  A    between atoms: _280  and  _283
REMARK  116  A    between atoms: _283  and  _284
REMARK  117  A    between atoms: _284  and  _285
REMARK  118  A    between atoms: _288  and  _290
REMARK  119  A    between atoms: _290  and  _291
REMARK  120  A    between atoms: _290  and  _293
REMARK  121  A    between atoms: _293  and  _294
REMARK  122  A    between atoms: _299  and  _301
REMARK  123  A    between atoms: _301  and  _302
REMARK  124  A    between atoms: _301  and  _304
REMARK  125  A    between atoms: _304  and  _305
REMARK  126  A    between atoms: _315  and  _317
REMARK  127  A    between atoms: _317  and  _318
REMARK  128  A    between atoms: _317  and  _320
REMARK  129  A    between atoms: _320  and  _321
REMARK  130  A    between atoms: _324  and  _326
REMARK  131  A    between atoms: _326  and  _327
REMARK  132  A    between atoms: _326  and  _329
REMARK  133  A    between atoms: _329  and  _330
REMARK  134  A    between atoms: _335  and  _337
REMARK  135  A    between atoms: _337  and  _338
REMARK  136  A    between atoms: _337  and  _340
REMARK  137  A    between atoms: _340  and  _341
REMARK  138  A    between atoms: _341  and  _342
REMARK  139  A    between atoms: _345  and  _347
REMARK  140  A    between atoms: _347  and  _348
REMARK  141  A    between atoms: _351  and  _353
REMARK  142  A    between atoms: _353  and  _354
REMARK  143  A    between atoms: _353  and  _356
REMARK  144  A    between atoms: _356  and  _357
REMARK  145  A    between atoms: _359  and  _361
REMARK  146  A    between atoms: _361  and  _362
REMARK  147  A    between atoms: _361  and  _364
REMARK  148  A    between atoms: _364  and  _365
REMARK  149  A    between atoms: _365  and  _366
REMARK  150  A    between atoms: _369  and  _371
REMARK  151  A    between atoms: _371  and  _372
REMARK  152  A    between atoms: _371  and  _374
REMARK  153  A    between atoms: _374  and  _375
REMARK  154  A    between atoms: _380  and  _381
REMARK  155  A    between atoms: _383  and  _385
REMARK  156  A    between atoms: _385  and  _386
REMARK  157  A    between atoms: _385  and  _388
REMARK  158  A    between atoms: _388  and  _389
REMARK  159  A    between atoms: _392  and  _394
REMARK  160  A    between atoms: _394  and  _395
REMARK  161  A    between atoms: _394  and  _397
REMARK  162  A    between atoms: _397  and  _398
REMARK  163  A    between atoms: _403  and  _405
REMARK  164  A    between atoms: _405  and  _406
REMARK  165  A    between atoms: _405  and  _408
REMARK  166  A    between atoms: _408  and  _409
REMARK  167  A    between atoms: _412  and  _414
REMARK  168  A    between atoms: _414  and  _415
REMARK  169  A    between atoms: _414  and  _417
REMARK  170  A    between atoms: _417  and  _418
REMARK  171  A    between atoms: _423  and  _424
REMARK  172  A    between atoms: _426  and  _428
REMARK  173  A    between atoms: _428  and  _429
REMARK  174  A    between atoms: _428  and  _431
REMARK  175  A    between atoms: _431  and  _432
REMARK  176  A    between atoms: _432  and  _433
REMARK  177  A    between atoms: _433  and  _434
REMARK  178  A    between atoms: _443  and  _445
REMARK  179  A    between atoms: _445  and  _446
REMARK  180  A    between atoms: _445  and  _448
REMARK  181  A    between atoms: _451  and  _453
REMARK  182  A    between atoms: _453  and  _454
REMARK  183  A    between atoms: _457  and  _459
REMARK  184  A    between atoms: _459  and  _460
REMARK  185  A    between atoms: _459  and  _462
REMARK  186  A    between atoms: _465  and  _467
REMARK  187  A    between atoms: _467  and  _468
REMARK  188  A    between atoms: _467  and  _470
REMARK  189  A    between atoms: _470  and  _471
REMARK  190  A    between atoms: _473  and  _475
REMARK  191  A    between atoms: _475  and  _476
REMARK  192  A    between atoms: _475  and  _478
REMARK  193  A    between atoms: _478  and  _479
REMARK  194  A    between atoms: _479  and  _480
REMARK  195  A    between atoms: _483  and  _485
REMARK  196  A    between atoms: _485  and  _486
REMARK  197  A    between atoms: _485  and  _488
REMARK  198  A    between atoms: _488  and  _489
REMARK  199  A    between atoms: _492  and  _494
REMARK  200  A    between atoms: _494  and  _495
REMARK  201  A    between atoms: _494  and  _497
REMARK  202  A    between atoms: _497  and  _498
REMARK  203  A    between atoms: _504  and  _506
REMARK  204  A    between atoms: _506  and  _507
REMARK  205  A    between atoms: _506  and  _509
REMARK  206  A    between atoms: _509  and  _510
REMARK  207  A    between atoms: _513  and  _515
REMARK  208  A    between atoms: _515  and  _516
REMARK  209  A    between atoms: _519  and  _521
REMARK  210  A    between atoms: _521  and  _522
REMARK  211  A    between atoms: _521  and  _524
REMARK  212  A    between atoms: _524  and  _525
REMARK  213  A    between atoms: _530  and  _531
REMARK  214  A    between atoms: _533  and  _535
REMARK  215  A    between atoms: _535  and  _536
REMARK  216  A    between atoms: _535  and  _538
REMARK  217  A    between atoms: _538  and  _539
REMARK  218  A    between atoms: _541  and  _543
REMARK  219  A    between atoms: _543  and  _544
REMARK  220  A    between atoms: _543  and  _546
REMARK  221  A    between atoms: _546  and  _547
REMARK  222  A    between atoms: _550  and  _552
REMARK  223  A    between atoms: _552  and  _553
REMARK  224  A    between atoms: _552  and  _555
REMARK  225  A    between atoms: _555  and  _556
REMARK  226  A    between atoms: _558  and  _560
REMARK  227  A    between atoms: _560  and  _561
REMARK  228  A    between atoms: _560  and  _563
REMARK  229  A    between atoms: _563  and  _564
REMARK  230  A    between atoms: _567  and  _569
REMARK  231  A    between atoms: _569  and  _570
REMARK  232  A    between atoms: _569  and  _572
REMARK  233  A    between atoms: _572  and  _573
REMARK  234  A    between atoms: _575  and  _577
REMARK  235  A    between atoms: _577  and  _578
REMARK  236  A    between atoms: _577  and  _580
REMARK  237  A    between atoms: _580  and  _581
REMARK  238  A    between atoms: _584  and  _586
REMARK  239  A    between atoms: _586  and  _587
REMARK  240  A    between atoms: _586  and  _589
REMARK  241  A    between atoms: _589  and  _590
REMARK  242  A    between atoms: _595  and  _597
REMARK  243  A    between atoms: _597  and  _598
REMARK  244  A    between atoms: _597  and  _600
REMARK  245  A    between atoms: _600  and  _601
REMARK  246  A    between atoms: _603  and  _605
REMARK  247  A    between atoms: _605  and  _606
REMARK  248  A    between atoms: _605  and  _608
REMARK  249  A    between atoms: _608  and  _609
REMARK  250  A    between atoms: _615  and  _617
REMARK  251  A    between atoms: _617  and  _618
REMARK  252  A    between atoms: _617  and  _620
REMARK  253  A    between atoms: _620  and  _621
REMARK  254  A    between atoms: _623  and  _625
REMARK  255  A    between atoms: _625  and  _626
REMARK  256  A    between atoms: _625  and  _628
REMARK  257  A    between atoms: _628  and  _629
REMARK  258  A    between atoms: _635  and  _637
REMARK  259  A    between atoms: _637  and  _638
REMARK  260  A    between atoms: _637  and  _640
REMARK  261  A    between atoms: _640  and  _641
REMARK  262  A    between atoms: _643  and  _645
REMARK  263  A    between atoms: _645  and  _646
REMARK  264  A    between atoms: _645  and  _648
REMARK  265  A    between atoms: _648  and  _649
REMARK  266  A    between atoms: _654  and  _656
REMARK  267  A    between atoms: _656  and  _657
REMARK  268  A    between atoms: _656  and  _659
REMARK  269  A    between atoms: _659  and  _660
REMARK  270  A    between atoms: _663  and  _665
REMARK  271  A    between atoms: _665  and  _666
REMARK  272  A    between atoms: _665  and  _668
REMARK  273  A    between atoms: _668  and  _669
REMARK  274  A    between atoms: _672  and  _674
REMARK  275  A    between atoms: _674  and  _675
REMARK  276  A    between atoms: _674  and  _677
REMARK  277  A    between atoms: _677  and  _678
REMARK  278  A    between atoms: _678  and  _679
REMARK  279  A    between atoms: _684  and  _686
REMARK  280  A    between atoms: _686  and  _687
REMARK  281  A    between atoms: _690  and  _692
REMARK  282  A    between atoms: _692  and  _693
REMARK  283  A    between atoms: _692  and  _695
REMARK  284  A    between atoms: _698  and  _700
REMARK  285  A    between atoms: _700  and  _701
REMARK  286  A    between atoms: _700  and  _703
REMARK  287  A    between atoms: _703  and  _704
REMARK  288  A    between atoms: _707  and  _709
REMARK  289  A    between atoms: _709  and  _710
REMARK  290  A    between atoms: _709  and  _712
REMARK  291  A    between atoms: _712  and  _713
REMARK  292  A    between atoms: _713  and  _714
REMARK  293  A    between atoms: _714  and  _715
REMARK  294  A    between atoms: _724  and  _726
REMARK  295  A    between atoms: _726  and  _727
REMARK  296  A    between atoms: _726  and  _729
REMARK  297  A    between atoms: _729  and  _730
REMARK  298  A    between atoms: _730  and  _731
REMARK  299  A    between atoms: _731  and  _732
REMARK  300  A    between atoms: _732  and  _733
REMARK                            x       y       z     vdW  Elec       q    Type
REMARK                         _______ _______ _______ _____ _____    ______ ____
ROOT
ATOM      1  O   HOH     1     103.814  24.513  16.300  0.00  0.00    +0.000 OA
ENDROOT
TORSDOF 0
REMARK  Name = ../refined-set-2016/4fys/4fys_pocket.pdb
REMARK  300 active torsions:
REMARK  status: ('A' for Active; 'I' for Inactive)
REMARK    1  A    between atoms: _1  and  _3
REMARK    2  A    between atoms: _3  and  _4
REMARK    3  A    between atoms: _3  and  _6
REMARK    4  A    between atoms: _6  and  _7
REMARK    5  A    between atoms: _7  and  _8
REMARK    6  A    between atoms: _13  and  _15
REMARK    7  A    between atoms: _15  and  _16
REMARK    8  A    between atoms: _15  and  _18
REMARK    9  A    between atoms: _18  and  _19
REMARK   10  A    between atoms: _19  and  _20
REMARK   11  A    between atoms: _22  and  _24
REMARK   12  A    between atoms: _24  and  _25
REMARK   13  A    between atoms: _24  and  _27
REMARK   14  A    between atoms: _27  and  _28
REMARK   15  A    between atoms: _28  and  _29
REMARK   16  A    between atoms: _34  and  _36
REMARK   17  A    between atoms: _36  and  _37
REMARK   18  A    between atoms: _40  and  _42
REMARK   19  A    between atoms: _42  and  _43
REMARK   20  A    between atoms: _42  and  _45
REMARK   21  A    between atoms: _45  and  _46
REMARK   22  A    between atoms: _51  and  _52
REMARK   23  A    between atoms: _54  and  _56
REMARK   24  A    between atoms: _56  and  _57
REMARK   25  A    between atoms: _56  and  _59
REMARK   26  A    between atoms: _59  and  _60
REMARK   27  A    between atoms: _63  and  _65
REMARK   28  A    between atoms: _65  and  _66
REMARK   29  A    between atoms: _65  and  _68
REMARK   30  A    between atoms: _68  and  _69
REMARK   31  A    between atoms: _75  and  _77
REMARK   32  A    between atoms: _77  and  _78
REMARK   33  A    between atoms: _77  and  _80
REMARK   34  A    between atoms: _80  and  _81
REMARK   35  A    between atoms: _86  and  _88
REMARK   36  A    between atoms: _88  and  _89
REMARK   37  A    between atoms: _92  and  _94
REMARK   38  A    between atoms: _94  and  _95
REMARK   39  A    between atoms: _97  and  _99
REMARK   40  A    between atoms: _99  and  _100
REMARK   41  A    between atoms: _103  and  _105
REMARK   42  A    between atoms: _105  and  _106
REMARK   43  A    between atoms: _105  and  _108
REMARK   44  A    between atoms: _108  and  _109
REMARK   45  A    between atoms: _109  and  _110
REMARK   46  A    between atoms: _112  and  _114
REMARK   47  A    between atoms: _114  and  _115
REMARK   48  A    between atoms: _114  and  _117
REMARK   49  A    between atoms: _117  and  _118
REMARK   50  A    between atoms: _118  and  _119
REMARK   51  A    between atoms: _122  and  _124
REMARK   52  A    between atoms: _124  and  _125
REMARK   53  A    between atoms: _124  and  _127
REMARK   54  A    between atoms: _127  and  _128
REMARK   55  A    between atoms: _133  and  _135
REMARK   56  A    between atoms: _135  and  _136
REMARK   57  A    between atoms: _135  and  _138
REMARK   58  A    between atoms: _138  and  _139
REMARK   59  A    between atoms: _142  and  _144
REMARK   60  A    between atoms: _144  and  _145
REMARK   61  A    between atoms: _144  and  _147
REMARK   62  A    between atoms: _147  and  _148
REMARK   63  A    between atoms: _153  and  _154
REMARK   64  A    between atoms: _156  and  _158
REMARK   65  A    between atoms: _158  and  _159
REMARK   66  A    between atoms: _158  and  _161
REMARK   67  A    between atoms: _161  and  _162
REMARK   68  A    between atoms: _162  and  _163
REMARK   69  A    between atoms: _163  and  _164
REMARK   70  A    between atoms: _173  and  _175
REMARK   71  A    between atoms: _175  and  _176
REMARK   72  A    between atoms: _175  and  _178
REMARK   73  A    between atoms: _178  and  _179
REMARK   74  A    between atoms: _184  and  _186
REMARK   75  A    between atoms: _186  and  _187
REMARK   76  A    between atoms: _186  and  _189
REMARK   77  A    between atoms: _189  and  _190
REMARK   78  A    between atoms: _192  and  _194
REMARK   79  A    between atoms: _194  and  _195
REMARK   80  A    between atoms: _194  and  _197
REMARK   81  A    between atoms: _197  and  _198
REMARK   82  A    between atoms: _200  and  _202
REMARK   83  A    between atoms: _202  and  _203
REMARK   84  A    between atoms: _202  and  _205
REMARK   85  A    between atoms: _205  and  _206
REMARK   86  A    between atoms: _206  and  _207
REMARK   87  A    between atoms: _210  and  _212
REMARK   88  A    between atoms: _212  and  _213
REMARK   89  A    between atoms: _212  and  _215
REMARK   90  A    between atoms: _215  and  _216
REMARK   91  A    between atoms: _216  and  _217
REMARK   92  A    between atoms: _217  and  _218
REMARK   93  A    between atoms: _227  and  _229
REMARK   94  A    between atoms: _229  and  _230
REMARK   95  A    between atoms: _229  and  _232
REMARK   96  A    between atoms: _235  and  _237
REMARK   97  A    between atoms: _237  and  _238
REMARK   98  A    between atoms: _237  and  _240
REMARK   99  A    between atoms: _240  and  _241
REMARK  100  A    between atoms: _244  and  _246
REMARK  101  A    between atoms: _246  and  _247
REMARK  102  A    between atoms: _246  and  _249
REMARK  103  A    between atoms: _252  and  _254
REMARK  104  A    between atoms: _254  and  _255
REMARK  105  A    between atoms: _254  and  _257
REMARK  106  A    between atoms: _257  and  _258
REMARK  107  A    between atoms: _261  and  _263
REMARK  108  A    between atoms: _263  and  _264
REMARK  109  A    between atoms: _267  and  _269
REMARK  110  A    between atoms: _269  and  _270
REMARK  111  A    between atoms: _269  and  _272
REMARK  112  A    between atoms: _272  and  _273
REMARK  113  A    between atoms: _278  and  _280
REMARK  114  A    between atoms: _280  and  _281
REMARK  115  A    between atoms: _280  and  _283
REMARK  116  A    between atoms: _283  and  _284
REMARK  117  A    between atoms: _284  and  _285
REMARK  118  A    between atoms: _288  and  _290
REMARK  119  A    between atoms: _290  and  _291
REMARK  120  A    between atoms: _290  and  _293
REMARK  121  A    between atoms: _293  and  _294
REMARK  122  A    between atoms: _299  and  _301
REMARK  123  A    between atoms: _301  and  _302
REMARK  124  A    between atoms: _301  and  _304
REMARK  125  A    between atoms: _304  and  _305
REMARK  126  A    between atoms: _315  and  _317
REMARK  127  A    between atoms: _317  and  _318
REMARK  128  A    between atoms: _317  and  _320
REMARK  129  A    between atoms: _320  and  _321
REMARK  130  A    between atoms: _324  and  _326
REMARK  131  A    between atoms: _326  and  _327
REMARK  132  A    between atoms: _326  and  _329
REMARK  133  A    between atoms: _329  and  _330
REMARK  134  A    between atoms: _335  and  _337
REMARK  135  A    between atoms: _337  and  _338
REMARK  136  A    between atoms: _337  and  _340
REMARK  137  A    between atoms: _340  and  _341
REMARK  138  A    between atoms: _341  and  _342
REMARK  139  A    between atoms: _345  and  _347
REMARK  140  A    between atoms: _347  and  _348
REMARK  141  A    between atoms: _351  and  _353
REMARK  142  A    between atoms: _353  and  _354
REMARK  143  A    between atoms: _353  and  _356
REMARK  144  A    between atoms: _356  and  _357
REMARK  145  A    between atoms: _359  and  _361
REMARK  146  A    between atoms: _361  and  _362
REMARK  147  A    between atoms: _361  and  _364
REMARK  148  A    between atoms: _364  and  _365
REMARK  149  A    between atoms: _365  and  _366
REMARK  150  A    between atoms: _369  and  _371
REMARK  151  A    between atoms: _371  and  _372
REMARK  152  A    between atoms: _371  and  _374
REMARK  153  A    between atoms: _374  and  _375
REMARK  154  A    between atoms: _380  and  _381
REMARK  155  A    between atoms: _383  and  _385
REMARK  156  A    between atoms: _385  and  _386
REMARK  157  A    between atoms: _385  and  _388
REMARK  158  A    between atoms: _388  and  _389
REMARK  159  A    between atoms: _392  and  _394
REMARK  160  A    between atoms: _394  and  _395
REMARK  161  A    between atoms: _394  and  _397
REMARK  162  A    between atoms: _397  and  _398
REMARK  163  A    between atoms: _403  and  _405
REMARK  164  A    between atoms: _405  and  _406
REMARK  165  A    between atoms: _405  and  _408
REMARK  166  A    between atoms: _408  and  _409
REMARK  167  A    between atoms: _412  and  _414
REMARK  168  A    between atoms: _414  and  _415
REMARK  169  A    between atoms: _414  and  _417
REMARK  170  A    between atoms: _417  and  _418
REMARK  171  A    between atoms: _423  and  _424
REMARK  172  A    between atoms: _426  and  _428
REMARK  173  A    between atoms: _428  and  _429
REMARK  174  A    between atoms: _428  and  _431
REMARK  175  A    between atoms: _431  and  _432
REMARK  176  A    between atoms: _432  and  _433
REMARK  177  A    between atoms: _433  and  _434
REMARK  178  A    between atoms: _443  and  _445
REMARK  179  A    between atoms: _445  and  _446
REMARK  180  A    between atoms: _445  and  _448
REMARK  181  A    between atoms: _451  and  _453
REMARK  182  A    between atoms: _453  and  _454
REMARK  183  A    between atoms: _457  and  _459
REMARK  184  A    between atoms: _459  and  _460
REMARK  185  A    between atoms: _459  and  _462
REMARK  186  A    between atoms: _465  and  _467
REMARK  187  A    between atoms: _467  and  _468
REMARK  188  A    between atoms: _467  and  _470
REMARK  189  A    between atoms: _470  and  _471
REMARK  190  A    between atoms: _473  and  _475
REMARK  191  A    between atoms: _475  and  _476
REMARK  192  A    between atoms: _475  and  _478
REMARK  193  A    between atoms: _478  and  _479
REMARK  194  A    between atoms: _479  and  _480
REMARK  195  A    between atoms: _483  and  _485
REMARK  196  A    between atoms: _485  and  _486
REMARK  197  A    between atoms: _485  and  _488
REMARK  198  A    between atoms: _488  and  _489
REMARK  199  A    between atoms: _492  and  _494
REMARK  200  A    between atoms: _494  and  _495
REMARK  201  A    between atoms: _494  and  _497
REMARK  202  A    between atoms: _497  and  _498
REMARK  203  A    between atoms: _504  and  _506
REMARK  204  A    between atoms: _506  and  _507
REMARK  205  A    between atoms: _506  and  _509
REMARK  206  A    between atoms: _509  and  _510
REMARK  207  A    between atoms: _513  and  _515
REMARK  208  A    between atoms: _515  and  _516
REMARK  209  A    between atoms: _519  and  _521
REMARK  210  A    between atoms: _521  and  _522
REMARK  211  A    between atoms: _521  and  _524
REMARK  212  A    between atoms: _524  and  _525
REMARK  213  A    between atoms: _530  and  _531
REMARK  214  A    between atoms: _533  and  _535
REMARK  215  A    between atoms: _535  and  _536
REMARK  216  A    between atoms: _535  and  _538
REMARK  217  A    between atoms: _538  and  _539
REMARK  218  A    between atoms: _541  and  _543
REMARK  219  A    between atoms: _543  and  _544
REMARK  220  A    between atoms: _543  and  _546
REMARK  221  A    between atoms: _546  and  _547
REMARK  222  A    between atoms: _550  and  _552
REMARK  223  A    between atoms: _552  and  _553
REMARK  224  A    between atoms: _552  and  _555
REMARK  225  A    between atoms: _555  and  _556
REMARK  226  A    between atoms: _558  and  _560
REMARK  227  A    between atoms: _560  and  _561
REMARK  228  A    between atoms: _560  and  _563
REMARK  229  A    between atoms: _563  and  _564
REMARK  230  A    between atoms: _567  and  _569
REMARK  231  A    between atoms: _569  and  _570
REMARK  232  A    between atoms: _569  and  _572
REMARK  233  A    between atoms: _572  and  _573
REMARK  234  A    between atoms: _575  and  _577
REMARK  235  A    between atoms: _577  and  _578
REMARK  236  A    between atoms: _577  and  _580
REMARK  237  A    between atoms: _580  and  _581
REMARK  238  A    between atoms: _584  and  _586
REMARK  239  A    between atoms: _586  and  _587
REMARK  240  A    between atoms: _586  and  _589
REMARK  241  A    between atoms: _589  and  _590
REMARK  242  A    between atoms: _595  and  _597
REMARK  243  A    between atoms: _597  and  _598
REMARK  244  A    between atoms: _597  and  _600
REMARK  245  A    between atoms: _600  and  _601
REMARK  246  A    between atoms: _603  and  _605
REMARK  247  A    between atoms: _605  and  _606
REMARK  248  A    between atoms: _605  and  _608
REMARK  249  A    between atoms: _608  and  _609
REMARK  250  A    between atoms: _615  and  _617
REMARK  251  A    between atoms: _617  and  _618
REMARK  252  A    between atoms: _617  and  _620
REMARK  253  A    between atoms: _620  and  _621
REMARK  254  A    between atoms: _623  and  _625
REMARK  255  A    between atoms: _625  and  _626
REMARK  256  A    between atoms: _625  and  _628
REMARK  257  A    between atoms: _628  and  _629
REMARK  258  A    between atoms: _635  and  _637
REMARK  259  A    between atoms: _637  and  _638
REMARK  260  A    between atoms: _637  and  _640
REMARK  261  A    between atoms: _640  and  _641
REMARK  262  A    between atoms: _643  and  _645
REMARK  263  A    between atoms: _645  and  _646
REMARK  264  A    between atoms: _645  and  _648
REMARK  265  A    between atoms: _648  and  _649
REMARK  266  A    between atoms: _654  and  _656
REMARK  267  A    between atoms: _656  and  _657
REMARK  268  A    between atoms: _656  and  _659
REMARK  269  A    between atoms: _659  and  _660
REMARK  270  A    between atoms: _663  and  _665
REMARK  271  A    between atoms: _665  and  _666
REMARK  272  A    between atoms: _665  and  _668
REMARK  273  A    between atoms: _668  and  _669
REMARK  274  A    between atoms: _672  and  _674
REMARK  275  A    between atoms: _674  and  _675
REMARK  276  A    between atoms: _674  and  _677
REMARK  277  A    between atoms: _677  and  _678
REMARK  278  A    between atoms: _678  and  _679
REMARK  279  A    between atoms: _684  and  _686
REMARK  280  A    between atoms: _686  and  _687
REMARK  281  A    between atoms: _690  and  _692
REMARK  282  A    between atoms: _692  and  _693
REMARK  283  A    between atoms: _692  and  _695
REMARK  284  A    between atoms: _698  and  _700
REMARK  285  A    between atoms: _700  and  _701
REMARK  286  A    between atoms: _700  and  _703
REMARK  287  A    between atoms: _703  and  _704
REMARK  288  A    between atoms: _707  and  _709
REMARK  289  A    between atoms: _709  and  _710
REMARK  290  A    between atoms: _709  and  _712
REMARK  291  A    between atoms: _712  and  _713
REMARK  292  A    between atoms: _713  and  _714
REMARK  293  A    between atoms: _714  and  _715
REMARK  294  A    between atoms: _724  and  _726
REMARK  295  A    between atoms: _726  and  _727
REMARK  296  A    between atoms: _726  and  _729
REMARK  297  A    between atoms: _729  and  _730
REMARK  298  A    between atoms: _730  and  _731
REMARK  299  A    between atoms: _731  and  _732
REMARK  300  A    between atoms: _732  and  _733
REMARK                            x       y       z     vdW  Elec       q    Type
REMARK                         _______ _______ _______ _____ _____    ______ ____
ROOT
ATOM      1  O   HOH     1     102.293  21.141   8.890  0.00  0.00    +0.000 OA
ENDROOT
TORSDOF 0
REMARK  Name = ../refined-set-2016/4fys/4fys_pocket.pdb
REMARK  300 active torsions:
REMARK  status: ('A' for Active; 'I' for Inactive)
REMARK    1  A    between atoms: _1  and  _3
REMARK    2  A    between atoms: _3  and  _4
REMARK    3  A    between atoms: _3  and  _6
REMARK    4  A    between atoms: _6  and  _7
REMARK    5  A    between atoms: _7  and  _8
REMARK    6  A    between atoms: _13  and  _15
REMARK    7  A    between atoms: _15  and  _16
REMARK    8  A    between atoms: _15  and  _18
REMARK    9  A    between atoms: _18  and  _19
REMARK   10  A    between atoms: _19  and  _20
REMARK   11  A    between atoms: _22  and  _24
REMARK   12  A    between atoms: _24  and  _25
REMARK   13  A    between atoms: _24  and  _27
REMARK   14  A    between atoms: _27  and  _28
REMARK   15  A    between atoms: _28  and  _29
REMARK   16  A    between atoms: _34  and  _36
REMARK   17  A    between atoms: _36  and  _37
REMARK   18  A    between atoms: _40  and  _42
REMARK   19  A    between atoms: _42  and  _43
REMARK   20  A    between atoms: _42  and  _45
REMARK   21  A    between atoms: _45  and  _46
REMARK   22  A    between atoms: _51  and  _52
REMARK   23  A    between atoms: _54  and  _56
REMARK   24  A    between atoms: _56  and  _57
REMARK   25  A    between atoms: _56  and  _59
REMARK   26  A    between atoms: _59  and  _60
REMARK   27  A    between atoms: _63  and  _65
REMARK   28  A    between atoms: _65  and  _66
REMARK   29  A    between atoms: _65  and  _68
REMARK   30  A    between atoms: _68  and  _69
REMARK   31  A    between atoms: _75  and  _77
REMARK   32  A    between atoms: _77  and  _78
REMARK   33  A    between atoms: _77  and  _80
REMARK   34  A    between atoms: _80  and  _81
REMARK   35  A    between atoms: _86  and  _88
REMARK   36  A    between atoms: _88  and  _89
REMARK   37  A    between atoms: _92  and  _94
REMARK   38  A    between atoms: _94  and  _95
REMARK   39  A    between atoms: _97  and  _99
REMARK   40  A    between atoms: _99  and  _100
REMARK   41  A    between atoms: _103  and  _105
REMARK   42  A    between atoms: _105  and  _106
REMARK   43  A    between atoms: _105  and  _108
REMARK   44  A    between atoms: _108  and  _109
REMARK   45  A    between atoms: _109  and  _110
REMARK   46  A    between atoms: _112  and  _114
REMARK   47  A    between atoms: _114  and  _115
REMARK   48  A    between atoms: _114  and  _117
REMARK   49  A    between atoms: _117  and  _118
REMARK   50  A    between atoms: _118  and  _119
REMARK   51  A    between atoms: _122  and  _124
REMARK   52  A    between atoms: _124  and  _125
REMARK   53  A    between atoms: _124  and  _127
REMARK   54  A    between atoms: _127  and  _128
REMARK   55  A    between atoms: _133  and  _135
REMARK   56  A    between atoms: _135  and  _136
REMARK   57  A    between atoms: _135  and  _138
REMARK   58  A    between atoms: _138  and  _139
REMARK   59  A    between atoms: _142  and  _144
REMARK   60  A    between atoms: _144  and  _145
REMARK   61  A    between atoms: _144  and  _147
REMARK   62  A    between atoms: _147  and  _148
REMARK   63  A    between atoms: _153  and  _154
REMARK   64  A    between atoms: _156  and  _158
REMARK   65  A    between atoms: _158  and  _159
REMARK   66  A    between atoms: _158  and  _161
REMARK   67  A    between atoms: _161  and  _162
REMARK   68  A    between atoms: _162  and  _163
REMARK   69  A    between atoms: _163  and  _164
REMARK   70  A    between atoms: _173  and  _175
REMARK   71  A    between atoms: _175  and  _176
REMARK   72  A    between atoms: _175  and  _178
REMARK   73  A    between atoms: _178  and  _179
REMARK   74  A    between atoms: _184  and  _186
REMARK   75  A    between atoms: _186  and  _187
REMARK   76  A    between atoms: _186  and  _189
REMARK   77  A    between atoms: _189  and  _190
REMARK   78  A    between atoms: _192  and  _194
REMARK   79  A    between atoms: _194  and  _195
REMARK   80  A    between atoms: _194  and  _197
REMARK   81  A    between atoms: _197  and  _198
REMARK   82  A    between atoms: _200  and  _202
REMARK   83  A    between atoms: _202  and  _203
REMARK   84  A    between atoms: _202  and  _205
REMARK   85  A    between atoms: _205  and  _206
REMARK   86  A    between atoms: _206  and  _207
REMARK   87  A    between atoms: _210  and  _212
REMARK   88  A    between atoms: _212  and  _213
REMARK   89  A    between atoms: _212  and  _215
REMARK   90  A    between atoms: _215  and  _216
REMARK   91  A    between atoms: _216  and  _217
REMARK   92  A    between atoms: _217  and  _218
REMARK   93  A    between atoms: _227  and  _229
REMARK   94  A    between atoms: _229  and  _230
REMARK   95  A    between atoms: _229  and  _232
REMARK   96  A    between atoms: _235  and  _237
REMARK   97  A    between atoms: _237  and  _238
REMARK   98  A    between atoms: _237  and  _240
REMARK   99  A    between atoms: _240  and  _241
REMARK  100  A    between atoms: _244  and  _246
REMARK  101  A    between atoms: _246  and  _247
REMARK  102  A    between atoms: _246  and  _249
REMARK  103  A    between atoms: _252  and  _254
REMARK  104  A    between atoms: _254  and  _255
REMARK  105  A    between atoms: _254  and  _257
REMARK  106  A    between atoms: _257  and  _258
REMARK  107  A    between atoms: _261  and  _263
REMARK  108  A    between atoms: _263  and  _264
REMARK  109  A    between atoms: _267  and  _269
REMARK  110  A    between atoms: _269  and  _270
REMARK  111  A    between atoms: _269  and  _272
REMARK  112  A    between atoms: _272  and  _273
REMARK  113  A    between atoms: _278  and  _280
REMARK  114  A    between atoms: _280  and  _281
REMARK  115  A    between atoms: _280  and  _283
REMARK  116  A    between atoms: _283  and  _284
REMARK  117  A    between atoms: _284  and  _285
REMARK  118  A    between atoms: _288  and  _290
REMARK  119  A    between atoms: _290  and  _291
REMARK  120  A    between atoms: _290  and  _293
REMARK  121  A    between atoms: _293  and  _294
REMARK  122  A    between atoms: _299  and  _301
REMARK  123  A    between atoms: _301  and  _302
REMARK  124  A    between atoms: _301  and  _304
REMARK  125  A    between atoms: _304  and  _305
REMARK  126  A    between atoms: _315  and  _317
REMARK  127  A    between atoms: _317  and  _318
REMARK  128  A    between atoms: _317  and  _320
REMARK  129  A    between atoms: _320  and  _321
REMARK  130  A    between atoms: _324  and  _326
REMARK  131  A    between atoms: _326  and  _327
REMARK  132  A    between atoms: _326  and  _329
REMARK  133  A    between atoms: _329  and  _330
REMARK  134  A    between atoms: _335  and  _337
REMARK  135  A    between atoms: _337  and  _338
REMARK  136  A    between atoms: _337  and  _340
REMARK  137  A    between atoms: _340  and  _341
REMARK  138  A    between atoms: _341  and  _342
REMARK  139  A    between atoms: _345  and  _347
REMARK  140  A    between atoms: _347  and  _348
REMARK  141  A    between atoms: _351  and  _353
REMARK  142  A    between atoms: _353  and  _354
REMARK  143  A    between atoms: _353  and  _356
REMARK  144  A    between atoms: _356  and  _357
REMARK  145  A    between atoms: _359  and  _361
REMARK  146  A    between atoms: _361  and  _362
REMARK  147  A    between atoms: _361  and  _364
REMARK  148  A    between atoms: _364  and  _365
REMARK  149  A    between atoms: _365  and  _366
REMARK  150  A    between atoms: _369  and  _371
REMARK  151  A    between atoms: _371  and  _372
REMARK  152  A    between atoms: _371  and  _374
REMARK  153  A    between atoms: _374  and  _375
REMARK  154  A    between atoms: _380  and  _381
REMARK  155  A    between atoms: _383  and  _385
REMARK  156  A    between atoms: _385  and  _386
REMARK  157  A    between atoms: _385  and  _388
REMARK  158  A    between atoms: _388  and  _389
REMARK  159  A    between atoms: _392  and  _394
REMARK  160  A    between atoms: _394  and  _395
REMARK  161  A    between atoms: _394  and  _397
REMARK  162  A    between atoms: _397  and  _398
REMARK  163  A    between atoms: _403  and  _405
REMARK  164  A    between atoms: _405  and  _406
REMARK  165  A    between atoms: _405  and  _408
REMARK  166  A    between atoms: _408  and  _409
REMARK  167  A    between atoms: _412  and  _414
REMARK  168  A    between atoms: _414  and  _415
REMARK  169  A    between atoms: _414  and  _417
REMARK  170  A    between atoms: _417  and  _418
REMARK  171  A    between atoms: _423  and  _424
REMARK  172  A    between atoms: _426  and  _428
REMARK  173  A    between atoms: _428  and  _429
REMARK  174  A    between atoms: _428  and  _431
REMARK  175  A    between atoms: _431  and  _432
REMARK  176  A    between atoms: _432  and  _433
REMARK  177  A    between atoms: _433  and  _434
REMARK  178  A    between atoms: _443  and  _445
REMARK  179  A    between atoms: _445  and  _446
REMARK  180  A    between atoms: _445  and  _448
REMARK  181  A    between atoms: _451  and  _453
REMARK  182  A    between atoms: _453  and  _454
REMARK  183  A    between atoms: _457  and  _459
REMARK  184  A    between atoms: _459  and  _460
REMARK  185  A    between atoms: _459  and  _462
REMARK  186  A    between atoms: _465  and  _467
REMARK  187  A    between atoms: _467  and  _468
REMARK  188  A    between atoms: _467  and  _470
REMARK  189  A    between atoms: _470  and  _471
REMARK  190  A    between atoms: _473  and  _475
REMARK  191  A    between atoms: _475  and  _476
REMARK  192  A    between atoms: _475  and  _478
REMARK  193  A    between atoms: _478  and  _479
REMARK  194  A    between atoms: _479  and  _480
REMARK  195  A    between atoms: _483  and  _485
REMARK  196  A    between atoms: _485  and  _486
REMARK  197  A    between atoms: _485  and  _488
REMARK  198  A    between atoms: _488  and  _489
REMARK  199  A    between atoms: _492  and  _494
REMARK  200  A    between atoms: _494  and  _495
REMARK  201  A    between atoms: _494  and  _497
REMARK  202  A    between atoms: _497  and  _498
REMARK  203  A    between atoms: _504  and  _506
REMARK  204  A    between atoms: _506  and  _507
REMARK  205  A    between atoms: _506  and  _509
REMARK  206  A    between atoms: _509  and  _510
REMARK  207  A    between atoms: _513  and  _515
REMARK  208  A    between atoms: _515  and  _516
REMARK  209  A    between atoms: _519  and  _521
REMARK  210  A    between atoms: _521  and  _522
REMARK  211  A    between atoms: _521  and  _524
REMARK  212  A    between atoms: _524  and  _525
REMARK  213  A    between atoms: _530  and  _531
REMARK  214  A    between atoms: _533  and  _535
REMARK  215  A    between atoms: _535  and  _536
REMARK  216  A    between atoms: _535  and  _538
REMARK  217  A    between atoms: _538  and  _539
REMARK  218  A    between atoms: _541  and  _543
REMARK  219  A    between atoms: _543  and  _544
REMARK  220  A    between atoms: _543  and  _546
REMARK  221  A    between atoms: _546  and  _547
REMARK  222  A    between atoms: _550  and  _552
REMARK  223  A    between atoms: _552  and  _553
REMARK  224  A    between atoms: _552  and  _555
REMARK  225  A    between atoms: _555  and  _556
REMARK  226  A    between atoms: _558  and  _560
REMARK  227  A    between atoms: _560  and  _561
REMARK  228  A    between atoms: _560  and  _563
REMARK  229  A    between atoms: _563  and  _564
REMARK  230  A    between atoms: _567  and  _569
REMARK  231  A    between atoms: _569  and  _570
REMARK  232  A    between atoms: _569  and  _572
REMARK  233  A    between atoms: _572  and  _573
REMARK  234  A    between atoms: _575  and  _577
REMARK  235  A    between atoms: _577  and  _578
REMARK  236  A    between atoms: _577  and  _580
REMARK  237  A    between atoms: _580  and  _581
REMARK  238  A    between atoms: _584  and  _586
REMARK  239  A    between atoms: _586  and  _587
REMARK  240  A    between atoms: _586  and  _589
REMARK  241  A    between atoms: _589  and  _590
REMARK  242  A    between atoms: _595  and  _597
REMARK  243  A    between atoms: _597  and  _598
REMARK  244  A    between atoms: _597  and  _600
REMARK  245  A    between atoms: _600  and  _601
REMARK  246  A    between atoms: _603  and  _605
REMARK  247  A    between atoms: _605  and  _606
REMARK  248  A    between atoms: _605  and  _608
REMARK  249  A    between atoms: _608  and  _609
REMARK  250  A    between atoms: _615  and  _617
REMARK  251  A    between atoms: _617  and  _618
REMARK  252  A    between atoms: _617  and  _620
REMARK  253  A    between atoms: _620  and  _621
REMARK  254  A    between atoms: _623  and  _625
REMARK  255  A    between atoms: _625  and  _626
REMARK  256  A    between atoms: _625  and  _628
REMARK  257  A    between atoms: _628  and  _629
REMARK  258  A    between atoms: _635  and  _637
REMARK  259  A    between atoms: _637  and  _638
REMARK  260  A    between atoms: _637  and  _640
REMARK  261  A    between atoms: _640  and  _641
REMARK  262  A    between atoms: _643  and  _645
REMARK  263  A    between atoms: _645  and  _646
REMARK  264  A    between atoms: _645  and  _648
REMARK  265  A    between atoms: _648  and  _649
REMARK  266  A    between atoms: _654  and  _656
REMARK  267  A    between atoms: _656  and  _657
REMARK  268  A    between atoms: _656  and  _659
REMARK  269  A    between atoms: _659  and  _660
REMARK  270  A    between atoms: _663  and  _665
REMARK  271  A    between atoms: _665  and  _666
REMARK  272  A    between atoms: _665  and  _668
REMARK  273  A    between atoms: _668  and  _669
REMARK  274  A    between atoms: _672  and  _674
REMARK  275  A    between atoms: _674  and  _675
REMARK  276  A    between atoms: _674  and  _677
REMARK  277  A    between atoms: _677  and  _678
REMARK  278  A    between atoms: _678  and  _679
REMARK  279  A    between atoms: _684  and  _686
REMARK  280  A    between atoms: _686  and  _687
REMARK  281  A    between atoms: _690  and  _692
REMARK  282  A    between atoms: _692  and  _693
REMARK  283  A    between atoms: _692  and  _695
REMARK  284  A    between atoms: _698  and  _700
REMARK  285  A    between atoms: _700  and  _701
REMARK  286  A    between atoms: _700  and  _703
REMARK  287  A    between atoms: _703  and  _704
REMARK  288  A    between atoms: _707  and  _709
REMARK  289  A    between atoms: _709  and  _710
REMARK  290  A    between atoms: _709  and  _712
REMARK  291  A    between atoms: _712  and  _713
REMARK  292  A    between atoms: _713  and  _714
REMARK  293  A    between atoms: _714  and  _715
REMARK  294  A    between atoms: _724  and  _726
REMARK  295  A    between atoms: _726  and  _727
REMARK  296  A    between atoms: _726  and  _729
REMARK  297  A    between atoms: _729  and  _730
REMARK  298  A    between atoms: _730  and  _731
REMARK  299  A    between atoms: _731  and  _732
REMARK  300  A    between atoms: _732  and  _733
REMARK                            x       y       z     vdW  Elec       q    Type
REMARK                         _______ _______ _______ _____ _____    ______ ____
ROOT
ATOM      1  O   HOH     1      98.068  17.546  24.510  0.00  0.00    +0.000 OA
ENDROOT
TORSDOF 0
