REMARK  Name = ../refined-set-2016/1mfa/1mfa_pocket.pdb
REMARK  113 active torsions:
REMARK  status: ('A' for Active; 'I' for Inactive)
REMARK    1  A    between atoms: _1  and  _3
REMARK    2  A    between atoms: _3  and  _4
REMARK    3  A    between atoms: _6  and  _8
REMARK    4  A    between atoms: _8  and  _9
REMARK    5  A    between atoms: _8  and  _11
REMARK    6  A    between atoms: _11  and  _12
REMARK    7  A    between atoms: _17  and  _19
REMARK    8  A    between atoms: _19  and  _20
REMARK    9  A    between atoms: _19  and  _22
REMARK   10  A    between atoms: _22  and  _23
REMARK   11  A    between atoms: _28  and  _30
REMARK   12  A    between atoms: _30  and  _31
REMARK   13  A    between atoms: _30  and  _33
REMARK   14  A    between atoms: _33  and  _34
REMARK   15  A    between atoms: _39  and  _41
REMARK   16  A    between atoms: _41  and  _42
REMARK   17  A    between atoms: _41  and  _44
REMARK   18  A    between atoms: _44  and  _45
REMARK   19  A    between atoms: _48  and  _50
REMARK   20  A    between atoms: _50  and  _51
REMARK   21  A    between atoms: _50  and  _53
REMARK   22  A    between atoms: _53  and  _54
REMARK   23  A    between atoms: _64  and  _66
REMARK   24  A    between atoms: _66  and  _67
REMARK   25  A    between atoms: _66  and  _69
REMARK   26  A    between atoms: _69  and  _70
REMARK   27  A    between atoms: _72  and  _74
REMARK   28  A    between atoms: _74  and  _75
REMARK   29  A    between atoms: _74  and  _77
REMARK   30  A    between atoms: _77  and  _78
REMARK   31  A    between atoms: _83  and  _85
REMARK   32  A    between atoms: _85  and  _86
REMARK   33  A    between atoms: _85  and  _88
REMARK   34  A    between atoms: _88  and  _89
REMARK   35  A    between atoms: _94  and  _96
REMARK   36  A    between atoms: _96  and  _97
REMARK   37  A    between atoms: _96  and  _99
REMARK   38  A    between atoms: _99  and  _100
REMARK   39  A    between atoms: _105  and  _107
REMARK   40  A    between atoms: _107  and  _108
REMARK   41  A    between atoms: _107  and  _110
REMARK   42  A    between atoms: _110  and  _111
REMARK   43  A    between atoms: _121  and  _123
REMARK   44  A    between atoms: _123  and  _124
REMARK   45  A    between atoms: _123  and  _126
REMARK   46  A    between atoms: _126  and  _127
REMARK   47  A    between atoms: _137  and  _139
REMARK   48  A    between atoms: _139  and  _140
REMARK   49  A    between atoms: _139  and  _142
REMARK   50  A    between atoms: _142  and  _143
REMARK   51  A    between atoms: _143  and  _144
REMARK   52  A    between atoms: _146  and  _148
REMARK   53  A    between atoms: _148  and  _149
REMARK   54  A    between atoms: _148  and  _151
REMARK   55  A    between atoms: _151  and  _152
REMARK   56  A    between atoms: _157  and  _159
REMARK   57  A    between atoms: _159  and  _160
REMARK   58  A    between atoms: _159  and  _162
REMARK   59  A    between atoms: _162  and  _163
REMARK   60  A    between atoms: _173  and  _175
REMARK   61  A    between atoms: _175  and  _176
REMARK   62  A    between atoms: _178  and  _180
REMARK   63  A    between atoms: _180  and  _181
REMARK   64  A    between atoms: _184  and  _186
REMARK   65  A    between atoms: _186  and  _187
REMARK   66  A    between atoms: _186  and  _189
REMARK   67  A    between atoms: _189  and  _190
REMARK   68  A    between atoms: _193  and  _195
REMARK   69  A    between atoms: _195  and  _196
REMARK   70  A    between atoms: _195  and  _198
REMARK   71  A    between atoms: _198  and  _199
REMARK   72  A    between atoms: _204  and  _205
REMARK   73  A    between atoms: _207  and  _209
REMARK   74  A    between atoms: _209  and  _210
REMARK   75  A    between atoms: _209  and  _212
REMARK   76  A    between atoms: _212  and  _213
REMARK   77  A    between atoms: _218  and  _220
REMARK   78  A    between atoms: _220  and  _221
REMARK   79  A    between atoms: _224  and  _226
REMARK   80  A    between atoms: _226  and  _227
REMARK   81  A    between atoms: _226  and  _229
REMARK   82  A    between atoms: _229  and  _230
REMARK   83  A    between atoms: _233  and  _235
REMARK   84  A    between atoms: _235  and  _236
REMARK   85  A    between atoms: _235  and  _238
REMARK   86  A    between atoms: _238  and  _239
REMARK   87  A    between atoms: _245  and  _247
REMARK   88  A    between atoms: _247  and  _248
REMARK   89  A    between atoms: _247  and  _250
REMARK   90  A    between atoms: _250  and  _251
REMARK   91  A    between atoms: _256  and  _257
REMARK   92  A    between atoms: _259  and  _261
REMARK   93  A    between atoms: _261  and  _262
REMARK   94  A    between atoms: _264  and  _266
REMARK   95  A    between atoms: _266  and  _267
REMARK   96  A    between atoms: _269  and  _271
REMARK   97  A    between atoms: _271  and  _272
REMARK   98  A    between atoms: _271  and  _274
REMARK   99  A    between atoms: _274  and  _275
REMARK  100  A    between atoms: _280  and  _282
REMARK  101  A    between atoms: _282  and  _283
REMARK  102  A    between atoms: _285  and  _287
REMARK  103  A    between atoms: _287  and  _288
REMARK  104  A    between atoms: _287  and  _290
REMARK  105  A    between atoms: _290  and  _291
REMARK  106  A    between atoms: _296  and  _297
REMARK  107  A    between atoms: _299  and  _301
REMARK  108  A    between atoms: _301  and  _302
REMARK  109  A    between atoms: _301  and  _304
REMARK  110  A    between atoms: _304  and  _305
REMARK  111  A    between atoms: _310  and  _311
REMARK  112  A    between atoms: _313  and  _315
REMARK  113  A    between atoms: _315  and  _316
REMARK                            x       y       z     vdW  Elec       q    Type
REMARK                         _______ _______ _______ _____ _____    ______ ____
ROOT
ATOM      1  CA  ASN A   2      19.133  -2.960  67.120  0.00  0.00    +0.158 C 
ENDROOT
BRANCH   1   3
ATOM      2  C   GLY A   1      18.512  -4.981  68.346  0.00  0.00    +0.240 C 
ATOM      3  N   ASN A   2      19.365  -3.981  68.138  0.00  0.00    -0.297 N 
ATOM      4  H   ASN A   2      20.225  -3.925  68.720  0.00  0.00    +0.150 HD
ATOM      5  O   GLY A   1      17.434  -5.043  67.755  0.00  0.00    -0.274 OA
BRANCH   2   6
ATOM      6  CA  GLY A   1      18.868  -6.024  69.404  0.00  0.00    +0.169 C 
BRANCH   6   7
ATOM      7  N   GLY A   1      20.237  -5.910  69.863  0.00  0.00    -0.236 NA
ATOM      8  H   GLY A   1      20.415  -5.584  70.834  0.00  0.00    +0.142 HD
ENDBRANCH   6   7
ENDBRANCH   2   6
ENDBRANCH   1   3
BRANCH   1   9
ATOM      9  C   ASN A   2      19.667  -3.391  65.757  0.00  0.00    +0.241 C 
ATOM     10  N   HIS A   3      20.390  -4.505  65.702  0.00  0.00    -0.298 N 
ATOM     11  H   HIS A   3      20.643  -4.962  66.601  0.00  0.00    +0.150 HD
ATOM     12  O   ASN A   2      19.463  -2.660  64.787  0.00  0.00    -0.273 OA
BRANCH  10  13
ATOM     13  CA  HIS A   3      20.859  -5.139  64.454  0.00  0.00    +0.143 C 
BRANCH  13  14
ATOM     14  C   HIS A   3      21.489  -4.117  63.506  0.00  0.00    +0.227 C 
ATOM     15  O   HIS A   3      21.103  -4.107  62.339  0.00  0.00    -0.286 OA
ENDBRANCH  13  14
BRANCH  13  16
ATOM     16  CB  HIS A   3      19.663  -5.817  63.757  0.00  0.00    +0.075 C 
BRANCH  16  17
ATOM     17  CG  HIS A   3      18.917  -6.915  64.504  0.00  0.00    +0.082 A 
ATOM     18  ND1 HIS A   3      19.423  -8.007  65.056  0.00  0.00    -0.227 NA
ATOM     19  CE1 HIS A   3      18.422  -8.689  65.536  0.00  0.00    +0.199 A 
ATOM     20  NE2 HIS A   3      17.300  -8.046  65.317  0.00  0.00    -0.221 NA
ATOM     21  CD2 HIS A   3      17.555  -6.925  64.678  0.00  0.00    +0.115 A 
ENDBRANCH  16  17
ENDBRANCH  13  16
ENDBRANCH  10  13
ENDBRANCH   1   9
BRANCH   1  22
ATOM     22  CB  ASN A   2      19.819  -1.645  67.464  0.00  0.00    +0.114 C 
BRANCH  22  23
ATOM     23  CG  ASN A   2      19.190  -0.958  68.657  0.00  0.00    +0.222 C 
ATOM     24  OD1 ASN A   2      19.926  -0.515  69.543  0.00  0.00    -0.275 OA
ATOM     25  ND2 ASN A   2      17.878  -0.826  68.771  0.00  0.00    -0.329 N 
ATOM     26 HD21 ASN A   2      17.473  -0.351  69.603  0.00  0.00    +0.145 HD
ATOM     27 HD22 ASN A   2      17.252  -1.197  68.028  0.00  0.00    +0.145 HD
ENDBRANCH  22  23
ENDBRANCH   1  22
TORSDOF 10
REMARK  Name = ../refined-set-2016/1mfa/1mfa_pocket.pdb
REMARK  113 active torsions:
REMARK  status: ('A' for Active; 'I' for Inactive)
REMARK    1  A    between atoms: _1  and  _3
REMARK    2  A    between atoms: _3  and  _4
REMARK    3  A    between atoms: _6  and  _8
REMARK    4  A    between atoms: _8  and  _9
REMARK    5  A    between atoms: _8  and  _11
REMARK    6  A    between atoms: _11  and  _12
REMARK    7  A    between atoms: _17  and  _19
REMARK    8  A    between atoms: _19  and  _20
REMARK    9  A    between atoms: _19  and  _22
REMARK   10  A    between atoms: _22  and  _23
REMARK   11  A    between atoms: _28  and  _30
REMARK   12  A    between atoms: _30  and  _31
REMARK   13  A    between atoms: _30  and  _33
REMARK   14  A    between atoms: _33  and  _34
REMARK   15  A    between atoms: _39  and  _41
REMARK   16  A    between atoms: _41  and  _42
REMARK   17  A    between atoms: _41  and  _44
REMARK   18  A    between atoms: _44  and  _45
REMARK   19  A    between atoms: _48  and  _50
REMARK   20  A    between atoms: _50  and  _51
REMARK   21  A    between atoms: _50  and  _53
REMARK   22  A    between atoms: _53  and  _54
REMARK   23  A    between atoms: _64  and  _66
REMARK   24  A    between atoms: _66  and  _67
REMARK   25  A    between atoms: _66  and  _69
REMARK   26  A    between atoms: _69  and  _70
REMARK   27  A    between atoms: _72  and  _74
REMARK   28  A    between atoms: _74  and  _75
REMARK   29  A    between atoms: _74  and  _77
REMARK   30  A    between atoms: _77  and  _78
REMARK   31  A    between atoms: _83  and  _85
REMARK   32  A    between atoms: _85  and  _86
REMARK   33  A    between atoms: _85  and  _88
REMARK   34  A    between atoms: _88  and  _89
REMARK   35  A    between atoms: _94  and  _96
REMARK   36  A    between atoms: _96  and  _97
REMARK   37  A    between atoms: _96  and  _99
REMARK   38  A    between atoms: _99  and  _100
REMARK   39  A    between atoms: _105  and  _107
REMARK   40  A    between atoms: _107  and  _108
REMARK   41  A    between atoms: _107  and  _110
REMARK   42  A    between atoms: _110  and  _111
REMARK   43  A    between atoms: _121  and  _123
REMARK   44  A    between atoms: _123  and  _124
REMARK   45  A    between atoms: _123  and  _126
REMARK   46  A    between atoms: _126  and  _127
REMARK   47  A    between atoms: _137  and  _139
REMARK   48  A    between atoms: _139  and  _140
REMARK   49  A    between atoms: _139  and  _142
REMARK   50  A    between atoms: _142  and  _143
REMARK   51  A    between atoms: _143  and  _144
REMARK   52  A    between atoms: _146  and  _148
REMARK   53  A    between atoms: _148  and  _149
REMARK   54  A    between atoms: _148  and  _151
REMARK   55  A    between atoms: _151  and  _152
REMARK   56  A    between atoms: _157  and  _159
REMARK   57  A    between atoms: _159  and  _160
REMARK   58  A    between atoms: _159  and  _162
REMARK   59  A    between atoms: _162  and  _163
REMARK   60  A    between atoms: _173  and  _175
REMARK   61  A    between atoms: _175  and  _176
REMARK   62  A    between atoms: _178  and  _180
REMARK   63  A    between atoms: _180  and  _181
REMARK   64  A    between atoms: _184  and  _186
REMARK   65  A    between atoms: _186  and  _187
REMARK   66  A    between atoms: _186  and  _189
REMARK   67  A    between atoms: _189  and  _190
REMARK   68  A    between atoms: _193  and  _195
REMARK   69  A    between atoms: _195  and  _196
REMARK   70  A    between atoms: _195  and  _198
REMARK   71  A    between atoms: _198  and  _199
REMARK   72  A    between atoms: _204  and  _205
REMARK   73  A    between atoms: _207  and  _209
REMARK   74  A    between atoms: _209  and  _210
REMARK   75  A    between atoms: _209  and  _212
REMARK   76  A    between atoms: _212  and  _213
REMARK   77  A    between atoms: _218  and  _220
REMARK   78  A    between atoms: _220  and  _221
REMARK   79  A    between atoms: _224  and  _226
REMARK   80  A    between atoms: _226  and  _227
REMARK   81  A    between atoms: _226  and  _229
REMARK   82  A    between atoms: _229  and  _230
REMARK   83  A    between atoms: _233  and  _235
REMARK   84  A    between atoms: _235  and  _236
REMARK   85  A    between atoms: _235  and  _238
REMARK   86  A    between atoms: _238  and  _239
REMARK   87  A    between atoms: _245  and  _247
REMARK   88  A    between atoms: _247  and  _248
REMARK   89  A    between atoms: _247  and  _250
REMARK   90  A    between atoms: _250  and  _251
REMARK   91  A    between atoms: _256  and  _257
REMARK   92  A    between atoms: _259  and  _261
REMARK   93  A    between atoms: _261  and  _262
REMARK   94  A    between atoms: _264  and  _266
REMARK   95  A    between atoms: _266  and  _267
REMARK   96  A    between atoms: _269  and  _271
REMARK   97  A    between atoms: _271  and  _272
REMARK   98  A    between atoms: _271  and  _274
REMARK   99  A    between atoms: _274  and  _275
REMARK  100  A    between atoms: _280  and  _282
REMARK  101  A    between atoms: _282  and  _283
REMARK  102  A    between atoms: _285  and  _287
REMARK  103  A    between atoms: _287  and  _288
REMARK  104  A    between atoms: _287  and  _290
REMARK  105  A    between atoms: _290  and  _291
REMARK  106  A    between atoms: _296  and  _297
REMARK  107  A    between atoms: _299  and  _301
REMARK  108  A    between atoms: _301  and  _302
REMARK  109  A    between atoms: _301  and  _304
REMARK  110  A    between atoms: _304  and  _305
REMARK  111  A    between atoms: _310  and  _311
REMARK  112  A    between atoms: _313  and  _315
REMARK  113  A    between atoms: _315  and  _316
REMARK                            x       y       z     vdW  Elec       q    Type
REMARK                         _______ _______ _______ _____ _____    ______ ____
ROOT
ATOM      1  CB  ASN A   1      21.844  -2.246  58.533  0.00  0.00    +0.110 C 
ENDROOT
BRANCH   1   2
ATOM      2  CG  ASN A   1      21.270  -3.642  58.594  0.00  0.00    +0.221 C 
ATOM      3  OD1 ASN A   1      21.400  -4.436  59.526  0.00  0.00    -0.275 OA
ATOM      4  ND2 ASN A   1      20.657  -4.040  57.515  0.00  0.00    -0.329 N 
ATOM      5 HD21 ASN A   1      20.289  -5.011  57.454  0.00  0.00    +0.145 HD
ATOM      6 HD22 ASN A   1      20.535  -3.387  56.715  0.00  0.00    +0.145 HD
ENDBRANCH   1   2
BRANCH   1   7
ATOM      7  CA  ASN A   1      23.125  -2.094  59.346  0.00  0.00    +0.142 C 
BRANCH   7   8
ATOM      8  N   ASN A   1      22.868  -1.853  60.759  0.00  0.00    -0.239 NA
ATOM      9  H   ASN A   1      22.257  -1.053  61.021  0.00  0.00    +0.142 HD
ENDBRANCH   7   8
BRANCH   7  10
ATOM     10  C   ASN A   1      23.862  -0.911  58.759  0.00  0.00    +0.225 C 
ATOM     11  O   ASN A   1      23.584   0.246  59.108  0.00  0.00    -0.287 OA
ENDBRANCH   7  10
ENDBRANCH   1   7
TORSDOF 4
REMARK  Name = ../refined-set-2016/1mfa/1mfa_pocket.pdb
REMARK  113 active torsions:
REMARK  status: ('A' for Active; 'I' for Inactive)
REMARK    1  A    between atoms: _1  and  _3
REMARK    2  A    between atoms: _3  and  _4
REMARK    3  A    between atoms: _6  and  _8
REMARK    4  A    between atoms: _8  and  _9
REMARK    5  A    between atoms: _8  and  _11
REMARK    6  A    between atoms: _11  and  _12
REMARK    7  A    between atoms: _17  and  _19
REMARK    8  A    between atoms: _19  and  _20
REMARK    9  A    between atoms: _19  and  _22
REMARK   10  A    between atoms: _22  and  _23
REMARK   11  A    between atoms: _28  and  _30
REMARK   12  A    between atoms: _30  and  _31
REMARK   13  A    between atoms: _30  and  _33
REMARK   14  A    between atoms: _33  and  _34
REMARK   15  A    between atoms: _39  and  _41
REMARK   16  A    between atoms: _41  and  _42
REMARK   17  A    between atoms: _41  and  _44
REMARK   18  A    between atoms: _44  and  _45
REMARK   19  A    between atoms: _48  and  _50
REMARK   20  A    between atoms: _50  and  _51
REMARK   21  A    between atoms: _50  and  _53
REMARK   22  A    between atoms: _53  and  _54
REMARK   23  A    between atoms: _64  and  _66
REMARK   24  A    between atoms: _66  and  _67
REMARK   25  A    between atoms: _66  and  _69
REMARK   26  A    between atoms: _69  and  _70
REMARK   27  A    between atoms: _72  and  _74
REMARK   28  A    between atoms: _74  and  _75
REMARK   29  A    between atoms: _74  and  _77
REMARK   30  A    between atoms: _77  and  _78
REMARK   31  A    between atoms: _83  and  _85
REMARK   32  A    between atoms: _85  and  _86
REMARK   33  A    between atoms: _85  and  _88
REMARK   34  A    between atoms: _88  and  _89
REMARK   35  A    between atoms: _94  and  _96
REMARK   36  A    between atoms: _96  and  _97
REMARK   37  A    between atoms: _96  and  _99
REMARK   38  A    between atoms: _99  and  _100
REMARK   39  A    between atoms: _105  and  _107
REMARK   40  A    between atoms: _107  and  _108
REMARK   41  A    between atoms: _107  and  _110
REMARK   42  A    between atoms: _110  and  _111
REMARK   43  A    between atoms: _121  and  _123
REMARK   44  A    between atoms: _123  and  _124
REMARK   45  A    between atoms: _123  and  _126
REMARK   46  A    between atoms: _126  and  _127
REMARK   47  A    between atoms: _137  and  _139
REMARK   48  A    between atoms: _139  and  _140
REMARK   49  A    between atoms: _139  and  _142
REMARK   50  A    between atoms: _142  and  _143
REMARK   51  A    between atoms: _143  and  _144
REMARK   52  A    between atoms: _146  and  _148
REMARK   53  A    between atoms: _148  and  _149
REMARK   54  A    between atoms: _148  and  _151
REMARK   55  A    between atoms: _151  and  _152
REMARK   56  A    between atoms: _157  and  _159
REMARK   57  A    between atoms: _159  and  _160
REMARK   58  A    between atoms: _159  and  _162
REMARK   59  A    between atoms: _162  and  _163
REMARK   60  A    between atoms: _173  and  _175
REMARK   61  A    between atoms: _175  and  _176
REMARK   62  A    between atoms: _178  and  _180
REMARK   63  A    between atoms: _180  and  _181
REMARK   64  A    between atoms: _184  and  _186
REMARK   65  A    between atoms: _186  and  _187
REMARK   66  A    between atoms: _186  and  _189
REMARK   67  A    between atoms: _189  and  _190
REMARK   68  A    between atoms: _193  and  _195
REMARK   69  A    between atoms: _195  and  _196
REMARK   70  A    between atoms: _195  and  _198
REMARK   71  A    between atoms: _198  and  _199
REMARK   72  A    between atoms: _204  and  _205
REMARK   73  A    between atoms: _207  and  _209
REMARK   74  A    between atoms: _209  and  _210
REMARK   75  A    between atoms: _209  and  _212
REMARK   76  A    between atoms: _212  and  _213
REMARK   77  A    between atoms: _218  and  _220
REMARK   78  A    between atoms: _220  and  _221
REMARK   79  A    between atoms: _224  and  _226
REMARK   80  A    between atoms: _226  and  _227
REMARK   81  A    between atoms: _226  and  _229
REMARK   82  A    between atoms: _229  and  _230
REMARK   83  A    between atoms: _233  and  _235
REMARK   84  A    between atoms: _235  and  _236
REMARK   85  A    between atoms: _235  and  _238
REMARK   86  A    between atoms: _238  and  _239
REMARK   87  A    between atoms: _245  and  _247
REMARK   88  A    between atoms: _247  and  _248
REMARK   89  A    between atoms: _247  and  _250
REMARK   90  A    between atoms: _250  and  _251
REMARK   91  A    between atoms: _256  and  _257
REMARK   92  A    between atoms: _259  and  _261
REMARK   93  A    between atoms: _261  and  _262
REMARK   94  A    between atoms: _264  and  _266
REMARK   95  A    between atoms: _266  and  _267
REMARK   96  A    between atoms: _269  and  _271
REMARK   97  A    between atoms: _271  and  _272
REMARK   98  A    between atoms: _271  and  _274
REMARK   99  A    between atoms: _274  and  _275
REMARK  100  A    between atoms: _280  and  _282
REMARK  101  A    between atoms: _282  and  _283
REMARK  102  A    between atoms: _285  and  _287
REMARK  103  A    between atoms: _287  and  _288
REMARK  104  A    between atoms: _287  and  _290
REMARK  105  A    between atoms: _290  and  _291
REMARK  106  A    between atoms: _296  and  _297
REMARK  107  A    between atoms: _299  and  _301
REMARK  108  A    between atoms: _301  and  _302
REMARK  109  A    between atoms: _301  and  _304
REMARK  110  A    between atoms: _304  and  _305
REMARK  111  A    between atoms: _310  and  _311
REMARK  112  A    between atoms: _313  and  _315
REMARK  113  A    between atoms: _315  and  _316
REMARK                            x       y       z     vdW  Elec       q    Type
REMARK                         _______ _______ _______ _____ _____    ______ ____
ROOT
ATOM      1  CA  ASP A   1      23.253  -7.476  62.297  0.00  0.00    +0.144 C 
ENDROOT
BRANCH   1   2
ATOM      2  N   ASP A   1      23.238  -6.932  60.948  0.00  0.00    -0.239 NA
ATOM      3  H   ASP A   1      22.396  -6.410  60.631  0.00  0.00    +0.142 HD
ENDBRANCH   1   2
BRANCH   1   4
ATOM      4  C   ASP A   1      24.537  -7.185  63.081  0.00  0.00    +0.225 C 
ATOM      5  O   ASP A   1      25.224  -8.069  63.634  0.00  0.00    -0.287 OA
ENDBRANCH   1   4
BRANCH   1   6
ATOM      6  CB  ASP A   1      22.994  -8.986  62.194  0.00  0.00    +0.139 C 
BRANCH   6   7
ATOM      7  CG  ASP A   1      22.417  -9.605  63.472  0.00  0.00    +0.367 C 
ATOM      8  OD2 ASP A   1      21.949  -8.876  64.352  0.00  0.00    -0.246 OA
ATOM      9  OD1 ASP A   1      22.436 -10.831  63.587  0.00  0.00    -0.246 OA
ENDBRANCH   6   7
ENDBRANCH   1   6
TORSDOF 4
REMARK  Name = ../refined-set-2016/1mfa/1mfa_pocket.pdb
REMARK  113 active torsions:
REMARK  status: ('A' for Active; 'I' for Inactive)
REMARK    1  A    between atoms: _1  and  _3
REMARK    2  A    between atoms: _3  and  _4
REMARK    3  A    between atoms: _6  and  _8
REMARK    4  A    between atoms: _8  and  _9
REMARK    5  A    between atoms: _8  and  _11
REMARK    6  A    between atoms: _11  and  _12
REMARK    7  A    between atoms: _17  and  _19
REMARK    8  A    between atoms: _19  and  _20
REMARK    9  A    between atoms: _19  and  _22
REMARK   10  A    between atoms: _22  and  _23
REMARK   11  A    between atoms: _28  and  _30
REMARK   12  A    between atoms: _30  and  _31
REMARK   13  A    between atoms: _30  and  _33
REMARK   14  A    between atoms: _33  and  _34
REMARK   15  A    between atoms: _39  and  _41
REMARK   16  A    between atoms: _41  and  _42
REMARK   17  A    between atoms: _41  and  _44
REMARK   18  A    between atoms: _44  and  _45
REMARK   19  A    between atoms: _48  and  _50
REMARK   20  A    between atoms: _50  and  _51
REMARK   21  A    between atoms: _50  and  _53
REMARK   22  A    between atoms: _53  and  _54
REMARK   23  A    between atoms: _64  and  _66
REMARK   24  A    between atoms: _66  and  _67
REMARK   25  A    between atoms: _66  and  _69
REMARK   26  A    between atoms: _69  and  _70
REMARK   27  A    between atoms: _72  and  _74
REMARK   28  A    between atoms: _74  and  _75
REMARK   29  A    between atoms: _74  and  _77
REMARK   30  A    between atoms: _77  and  _78
REMARK   31  A    between atoms: _83  and  _85
REMARK   32  A    between atoms: _85  and  _86
REMARK   33  A    between atoms: _85  and  _88
REMARK   34  A    between atoms: _88  and  _89
REMARK   35  A    between atoms: _94  and  _96
REMARK   36  A    between atoms: _96  and  _97
REMARK   37  A    between atoms: _96  and  _99
REMARK   38  A    between atoms: _99  and  _100
REMARK   39  A    between atoms: _105  and  _107
REMARK   40  A    between atoms: _107  and  _108
REMARK   41  A    between atoms: _107  and  _110
REMARK   42  A    between atoms: _110  and  _111
REMARK   43  A    between atoms: _121  and  _123
REMARK   44  A    between atoms: _123  and  _124
REMARK   45  A    between atoms: _123  and  _126
REMARK   46  A    between atoms: _126  and  _127
REMARK   47  A    between atoms: _137  and  _139
REMARK   48  A    between atoms: _139  and  _140
REMARK   49  A    between atoms: _139  and  _142
REMARK   50  A    between atoms: _142  and  _143
REMARK   51  A    between atoms: _143  and  _144
REMARK   52  A    between atoms: _146  and  _148
REMARK   53  A    between atoms: _148  and  _149
REMARK   54  A    between atoms: _148  and  _151
REMARK   55  A    between atoms: _151  and  _152
REMARK   56  A    between atoms: _157  and  _159
REMARK   57  A    between atoms: _159  and  _160
REMARK   58  A    between atoms: _159  and  _162
REMARK   59  A    between atoms: _162  and  _163
REMARK   60  A    between atoms: _173  and  _175
REMARK   61  A    between atoms: _175  and  _176
REMARK   62  A    between atoms: _178  and  _180
REMARK   63  A    between atoms: _180  and  _181
REMARK   64  A    between atoms: _184  and  _186
REMARK   65  A    between atoms: _186  and  _187
REMARK   66  A    between atoms: _186  and  _189
REMARK   67  A    between atoms: _189  and  _190
REMARK   68  A    between atoms: _193  and  _195
REMARK   69  A    between atoms: _195  and  _196
REMARK   70  A    between atoms: _195  and  _198
REMARK   71  A    between atoms: _198  and  _199
REMARK   72  A    between atoms: _204  and  _205
REMARK   73  A    between atoms: _207  and  _209
REMARK   74  A    between atoms: _209  and  _210
REMARK   75  A    between atoms: _209  and  _212
REMARK   76  A    between atoms: _212  and  _213
REMARK   77  A    between atoms: _218  and  _220
REMARK   78  A    between atoms: _220  and  _221
REMARK   79  A    between atoms: _224  and  _226
REMARK   80  A    between atoms: _226  and  _227
REMARK   81  A    between atoms: _226  and  _229
REMARK   82  A    between atoms: _229  and  _230
REMARK   83  A    between atoms: _233  and  _235
REMARK   84  A    between atoms: _235  and  _236
REMARK   85  A    between atoms: _235  and  _238
REMARK   86  A    between atoms: _238  and  _239
REMARK   87  A    between atoms: _245  and  _247
REMARK   88  A    between atoms: _247  and  _248
REMARK   89  A    between atoms: _247  and  _250
REMARK   90  A    between atoms: _250  and  _251
REMARK   91  A    between atoms: _256  and  _257
REMARK   92  A    between atoms: _259  and  _261
REMARK   93  A    between atoms: _261  and  _262
REMARK   94  A    between atoms: _264  and  _266
REMARK   95  A    between atoms: _266  and  _267
REMARK   96  A    between atoms: _269  and  _271
REMARK   97  A    between atoms: _271  and  _272
REMARK   98  A    between atoms: _271  and  _274
REMARK   99  A    between atoms: _274  and  _275
REMARK  100  A    between atoms: _280  and  _282
REMARK  101  A    between atoms: _282  and  _283
REMARK  102  A    between atoms: _285  and  _287
REMARK  103  A    between atoms: _287  and  _288
REMARK  104  A    between atoms: _287  and  _290
REMARK  105  A    between atoms: _290  and  _291
REMARK  106  A    between atoms: _296  and  _297
REMARK  107  A    between atoms: _299  and  _301
REMARK  108  A    between atoms: _301  and  _302
REMARK  109  A    between atoms: _301  and  _304
REMARK  110  A    between atoms: _304  and  _305
REMARK  111  A    between atoms: _310  and  _311
REMARK  112  A    between atoms: _313  and  _315
REMARK  113  A    between atoms: _315  and  _316
REMARK                            x       y       z     vdW  Elec       q    Type
REMARK                         _______ _______ _______ _____ _____    ______ ____
ROOT
ATOM      1  C   ASN A   3       9.800  -0.771  66.698  0.00  0.00    +0.241 C 
ATOM      2  O   ASN A   3       8.848  -0.131  66.231  0.00  0.00    -0.273 OA
ATOM      3  N   ASN A   4      10.364  -1.829  66.106  0.00  0.00    -0.297 N 
ATOM      4  H   ASN A   4      11.189  -2.272  66.559  0.00  0.00    +0.150 HD
ENDROOT
BRANCH   3   5
ATOM      5  CA  ASN A   4       9.875  -2.385  64.859  0.00  0.00    +0.158 C 
BRANCH   5   6
ATOM      6  C   ASN A   4       9.865  -1.445  63.679  0.00  0.00    +0.241 C 
ATOM      7  N   HIS A   5      10.868  -0.579  63.616  0.00  0.00    -0.297 N 
ATOM      8  H   HIS A   5      11.542  -0.547  64.408  0.00  0.00    +0.150 HD
ATOM      9  O   ASN A   4       9.016  -1.525  62.798  0.00  0.00    -0.273 OA
BRANCH   7  10
ATOM     10  CA  HIS A   5      11.074   0.325  62.502  0.00  0.00    +0.155 C 
BRANCH  10  11
ATOM     11  C   HIS A   5      12.548   0.306  62.177  0.00  0.00    +0.241 C 
ATOM     12  O   HIS A   5      13.358   0.184  63.109  0.00  0.00    -0.273 OA
ATOM     13  N   TRP A   6      12.944   0.408  60.894  0.00  0.00    -0.298 N 
ATOM     14  H   TRP A   6      12.253   0.286  60.127  0.00  0.00    +0.150 HD
BRANCH  13  15
ATOM     15  CA  TRP A   6      14.334   0.688  60.579  0.00  0.00    +0.141 C 
BRANCH  15  16
ATOM     16  C   TRP A   6      14.382   2.213  60.515  0.00  0.00    +0.227 C 
ATOM     17  O   TRP A   6      13.534   2.832  59.834  0.00  0.00    -0.286 OA
ENDBRANCH  15  16
BRANCH  15  18
ATOM     18  CB  TRP A   6      14.758   0.090  59.200  0.00  0.00    +0.056 C 
BRANCH  18  19
ATOM     19  CG  TRP A   6      15.029  -1.408  59.266  0.00  0.00    -0.002 A 
ATOM     20  CD2 TRP A   6      16.167  -1.983  59.788  0.00  0.00    +0.013 A 
ATOM     21  CE3 TRP A   6      17.375  -1.562  60.365  0.00  0.00    +0.001 A 
ATOM     22  CZ3 TRP A   6      18.314  -2.526  60.751  0.00  0.00    +0.000 A 
ATOM     23  CH2 TRP A   6      18.055  -3.893  60.572  0.00  0.00    +0.001 A 
ATOM     24  CZ2 TRP A   6      16.845  -4.325  59.998  0.00  0.00    +0.017 A 
ATOM     25  CE2 TRP A   6      15.908  -3.353  59.609  0.00  0.00    +0.056 A 
ATOM     26  NE1 TRP A   6      14.702  -3.505  59.037  0.00  0.00    -0.352 N 
ATOM     27  HE1 TRP A   6      14.275  -4.425  58.808  0.00  0.00    +0.166 HD
ATOM     28  CD1 TRP A   6      14.126  -2.337  58.802  0.00  0.00    +0.068 A 
ENDBRANCH  18  19
ENDBRANCH  15  18
ENDBRANCH  13  15
ENDBRANCH  10  11
BRANCH  10  29
ATOM     29  CB  HIS A   5      10.774   1.785  62.816  0.00  0.00    +0.076 C 
BRANCH  29  30
ATOM     30  CG  HIS A   5       9.301   2.072  62.938  0.00  0.00    +0.082 A 
ATOM     31  ND1 HIS A   5       8.433   1.513  63.765  0.00  0.00    -0.227 NA
ATOM     32  CE1 HIS A   5       7.260   2.049  63.527  0.00  0.00    +0.199 A 
ATOM     33  NE2 HIS A   5       7.398   2.943  62.560  0.00  0.00    -0.221 NA
ATOM     34  CD2 HIS A   5       8.657   2.991  62.158  0.00  0.00    +0.115 A 
ENDBRANCH  29  30
ENDBRANCH  10  29
ENDBRANCH   7  10
ENDBRANCH   5   6
BRANCH   5  35
ATOM     35  CB  ASN A   4       8.496  -2.938  65.057  0.00  0.00    +0.114 C 
BRANCH  35  36
ATOM     36  CG  ASN A   4       8.548  -4.226  65.860  0.00  0.00    +0.222 C 
ATOM     37  ND2 ASN A   4       7.371  -4.657  66.245  0.00  0.00    -0.329 N 
ATOM     38 HD21 ASN A   4       7.294  -5.531  66.804  0.00  0.00    +0.145 HD
ATOM     39 HD22 ASN A   4       6.514  -4.125  65.991  0.00  0.00    +0.145 HD
ATOM     40  OD1 ASN A   4       9.580  -4.840  66.149  0.00  0.00    -0.275 OA
ENDBRANCH  35  36
ENDBRANCH   5  35
ENDBRANCH   3   5
BRANCH   1  41
ATOM     41  CA  ASN A   3      10.481  -0.388  67.998  0.00  0.00    +0.158 C 
BRANCH  41  43
ATOM     42  C   SER A   2      12.573   0.273  66.876  0.00  0.00    +0.243 C 
ATOM     43  N   ASN A   3      11.936  -0.408  67.831  0.00  0.00    -0.297 N 
ATOM     44  H   ASN A   3      12.501  -0.981  68.489  0.00  0.00    +0.150 HD
ATOM     45  O   SER A   2      11.994   0.958  66.011  0.00  0.00    -0.273 OA
BRANCH  42  46
ATOM     46  CA  SER A   2      14.062   0.161  66.922  0.00  0.00    +0.178 C 
BRANCH  46  49
ATOM     47  C   TRP A   1      15.500  -1.222  65.543  0.00  0.00    +0.239 C 
ATOM     48  O   TRP A   1      16.087  -1.642  66.533  0.00  0.00    -0.274 OA
ATOM     49  N   SER A   2      14.498  -0.380  65.655  0.00  0.00    -0.295 N 
ATOM     50  H   SER A   2      13.995  -0.089  64.792  0.00  0.00    +0.150 HD
BRANCH  47  51
ATOM     51  CA  TRP A   1      15.959  -1.614  64.126  0.00  0.00    +0.149 C 
BRANCH  51  52
ATOM     52  N   TRP A   1      17.294  -1.063  63.963  0.00  0.00    -0.238 NA
ATOM     53  H   TRP A   1      18.117  -1.648  64.213  0.00  0.00    +0.142 HD
ENDBRANCH  51  52
BRANCH  51  54
ATOM     54  CB  TRP A   1      16.017  -3.148  63.925  0.00  0.00    +0.054 C 
BRANCH  54  55
ATOM     55  CG  TRP A   1      14.654  -3.870  63.995  0.00  0.00    -0.002 A 
ATOM     56  CD1 TRP A   1      14.472  -4.819  64.977  0.00  0.00    +0.068 A 
ATOM     57  NE1 TRP A   1      13.253  -5.289  64.772  0.00  0.00    -0.352 N 
ATOM     58  HE1 TRP A   1      12.807  -6.028  65.352  0.00  0.00    +0.166 HD
ATOM     59  CE2 TRP A   1      12.662  -4.695  63.723  0.00  0.00    +0.056 A 
ATOM     60  CZ2 TRP A   1      11.373  -4.921  63.199  0.00  0.00    +0.017 A 
ATOM     61  CH2 TRP A   1      10.956  -4.169  62.101  0.00  0.00    +0.001 A 
ATOM     62  CZ3 TRP A   1      11.814  -3.210  61.541  0.00  0.00    +0.000 A 
ATOM     63  CE3 TRP A   1      13.093  -3.001  62.075  0.00  0.00    +0.001 A 
ATOM     64  CD2 TRP A   1      13.538  -3.741  63.175  0.00  0.00    +0.013 A 
ENDBRANCH  54  55
ENDBRANCH  51  54
ENDBRANCH  47  51
ENDBRANCH  46  49
BRANCH  46  65
ATOM     65  CB  SER A   2      14.668   1.540  67.128  0.00  0.00    +0.166 C 
BRANCH  65  66
ATOM     66  OG  SER A   2      14.228   2.188  68.324  0.00  0.00    -0.380 OA
ATOM     67  H   SER A   2      13.245   2.299  68.295  0.00  0.00    +0.211 HD
ENDBRANCH  65  66
ENDBRANCH  46  65
ENDBRANCH  42  46
ENDBRANCH  41  43
BRANCH  41  68
ATOM     68  CB  ASN A   3       9.945   1.001  68.414  0.00  0.00    +0.114 C 
BRANCH  68  69
ATOM     69  CG  ASN A   3      10.730   1.642  69.546  0.00  0.00    +0.222 C 
ATOM     70  ND2 ASN A   3      10.674   1.077  70.756  0.00  0.00    -0.329 N 
ATOM     71 HD21 ASN A   3      11.230   1.473  71.541  0.00  0.00    +0.145 HD
ATOM     72 HD22 ASN A   3      10.074   0.242  70.913  0.00  0.00    +0.145 HD
ATOM     73  OD1 ASN A   3      11.436   2.641  69.323  0.00  0.00    -0.275 OA
ENDBRANCH  68  69
ENDBRANCH  41  68
ENDBRANCH   1  41
TORSDOF 24
REMARK  Name = ../refined-set-2016/1mfa/1mfa_pocket.pdb
REMARK  113 active torsions:
REMARK  status: ('A' for Active; 'I' for Inactive)
REMARK    1  A    between atoms: _1  and  _3
REMARK    2  A    between atoms: _3  and  _4
REMARK    3  A    between atoms: _6  and  _8
REMARK    4  A    between atoms: _8  and  _9
REMARK    5  A    between atoms: _8  and  _11
REMARK    6  A    between atoms: _11  and  _12
REMARK    7  A    between atoms: _17  and  _19
REMARK    8  A    between atoms: _19  and  _20
REMARK    9  A    between atoms: _19  and  _22
REMARK   10  A    between atoms: _22  and  _23
REMARK   11  A    between atoms: _28  and  _30
REMARK   12  A    between atoms: _30  and  _31
REMARK   13  A    between atoms: _30  and  _33
REMARK   14  A    between atoms: _33  and  _34
REMARK   15  A    between atoms: _39  and  _41
REMARK   16  A    between atoms: _41  and  _42
REMARK   17  A    between atoms: _41  and  _44
REMARK   18  A    between atoms: _44  and  _45
REMARK   19  A    between atoms: _48  and  _50
REMARK   20  A    between atoms: _50  and  _51
REMARK   21  A    between atoms: _50  and  _53
REMARK   22  A    between atoms: _53  and  _54
REMARK   23  A    between atoms: _64  and  _66
REMARK   24  A    between atoms: _66  and  _67
REMARK   25  A    between atoms: _66  and  _69
REMARK   26  A    between atoms: _69  and  _70
REMARK   27  A    between atoms: _72  and  _74
REMARK   28  A    between atoms: _74  and  _75
REMARK   29  A    between atoms: _74  and  _77
REMARK   30  A    between atoms: _77  and  _78
REMARK   31  A    between atoms: _83  and  _85
REMARK   32  A    between atoms: _85  and  _86
REMARK   33  A    between atoms: _85  and  _88
REMARK   34  A    between atoms: _88  and  _89
REMARK   35  A    between atoms: _94  and  _96
REMARK   36  A    between atoms: _96  and  _97
REMARK   37  A    between atoms: _96  and  _99
REMARK   38  A    between atoms: _99  and  _100
REMARK   39  A    between atoms: _105  and  _107
REMARK   40  A    between atoms: _107  and  _108
REMARK   41  A    between atoms: _107  and  _110
REMARK   42  A    between atoms: _110  and  _111
REMARK   43  A    between atoms: _121  and  _123
REMARK   44  A    between atoms: _123  and  _124
REMARK   45  A    between atoms: _123  and  _126
REMARK   46  A    between atoms: _126  and  _127
REMARK   47  A    between atoms: _137  and  _139
REMARK   48  A    between atoms: _139  and  _140
REMARK   49  A    between atoms: _139  and  _142
REMARK   50  A    between atoms: _142  and  _143
REMARK   51  A    between atoms: _143  and  _144
REMARK   52  A    between atoms: _146  and  _148
REMARK   53  A    between atoms: _148  and  _149
REMARK   54  A    between atoms: _148  and  _151
REMARK   55  A    between atoms: _151  and  _152
REMARK   56  A    between atoms: _157  and  _159
REMARK   57  A    between atoms: _159  and  _160
REMARK   58  A    between atoms: _159  and  _162
REMARK   59  A    between atoms: _162  and  _163
REMARK   60  A    between atoms: _173  and  _175
REMARK   61  A    between atoms: _175  and  _176
REMARK   62  A    between atoms: _178  and  _180
REMARK   63  A    between atoms: _180  and  _181
REMARK   64  A    between atoms: _184  and  _186
REMARK   65  A    between atoms: _186  and  _187
REMARK   66  A    between atoms: _186  and  _189
REMARK   67  A    between atoms: _189  and  _190
REMARK   68  A    between atoms: _193  and  _195
REMARK   69  A    between atoms: _195  and  _196
REMARK   70  A    between atoms: _195  and  _198
REMARK   71  A    between atoms: _198  and  _199
REMARK   72  A    between atoms: _204  and  _205
REMARK   73  A    between atoms: _207  and  _209
REMARK   74  A    between atoms: _209  and  _210
REMARK   75  A    between atoms: _209  and  _212
REMARK   76  A    between atoms: _212  and  _213
REMARK   77  A    between atoms: _218  and  _220
REMARK   78  A    between atoms: _220  and  _221
REMARK   79  A    between atoms: _224  and  _226
REMARK   80  A    between atoms: _226  and  _227
REMARK   81  A    between atoms: _226  and  _229
REMARK   82  A    between atoms: _229  and  _230
REMARK   83  A    between atoms: _233  and  _235
REMARK   84  A    between atoms: _235  and  _236
REMARK   85  A    between atoms: _235  and  _238
REMARK   86  A    between atoms: _238  and  _239
REMARK   87  A    between atoms: _245  and  _247
REMARK   88  A    between atoms: _247  and  _248
REMARK   89  A    between atoms: _247  and  _250
REMARK   90  A    between atoms: _250  and  _251
REMARK   91  A    between atoms: _256  and  _257
REMARK   92  A    between atoms: _259  and  _261
REMARK   93  A    between atoms: _261  and  _262
REMARK   94  A    between atoms: _264  and  _266
REMARK   95  A    between atoms: _266  and  _267
REMARK   96  A    between atoms: _269  and  _271
REMARK   97  A    between atoms: _271  and  _272
REMARK   98  A    between atoms: _271  and  _274
REMARK   99  A    between atoms: _274  and  _275
REMARK  100  A    between atoms: _280  and  _282
REMARK  101  A    between atoms: _282  and  _283
REMARK  102  A    between atoms: _285  and  _287
REMARK  103  A    between atoms: _287  and  _288
REMARK  104  A    between atoms: _287  and  _290
REMARK  105  A    between atoms: _290  and  _291
REMARK  106  A    between atoms: _296  and  _297
REMARK  107  A    between atoms: _299  and  _301
REMARK  108  A    between atoms: _301  and  _302
REMARK  109  A    between atoms: _301  and  _304
REMARK  110  A    between atoms: _304  and  _305
REMARK  111  A    between atoms: _310  and  _311
REMARK  112  A    between atoms: _313  and  _315
REMARK  113  A    between atoms: _315  and  _316
REMARK                            x       y       z     vdW  Elec       q    Type
REMARK                         _______ _______ _______ _____ _____    ______ ____
ROOT
ATOM      1  C   TRP A   1      12.191  -9.352  52.025  0.00  0.00    +0.239 C 
ATOM      2  N   MET A   2      11.172  -8.605  51.588  0.00  0.00    -0.297 N 
ATOM      3  H   MET A   2      10.214  -8.774  51.956  0.00  0.00    +0.150 HD
ATOM      4  O   TRP A   1      13.311  -9.309  51.480  0.00  0.00    -0.274 OA
ENDROOT
BRANCH   1   5
ATOM      5  CA  TRP A   1      11.986 -10.287  53.227  0.00  0.00    +0.149 C 
BRANCH   5   6
ATOM      6  N   TRP A   1      12.945 -11.371  53.126  0.00  0.00    -0.238 NA
ATOM      7  H   TRP A   1      13.879 -11.259  53.569  0.00  0.00    +0.142 HD
ENDBRANCH   5   6
BRANCH   5   8
ATOM      8  CB  TRP A   1      12.223  -9.442  54.488  0.00  0.00    +0.054 C 
BRANCH   8   9
ATOM      9  CG  TRP A   1      11.844 -10.164  55.788  0.00  0.00    -0.002 A 
ATOM     10  CD2 TRP A   1      10.679  -9.967  56.485  0.00  0.00    +0.013 A 
ATOM     11  CE2 TRP A   1      10.834 -10.859  57.554  0.00  0.00    +0.056 A 
ATOM     12  CZ2 TRP A   1       9.817 -10.971  58.515  0.00  0.00    +0.017 A 
ATOM     13  CH2 TRP A   1       8.666 -10.193  58.391  0.00  0.00    +0.001 A 
ATOM     14  CZ3 TRP A   1       8.519  -9.302  57.328  0.00  0.00    +0.000 A 
ATOM     15  NE1 TRP A   1      12.012 -11.495  57.445  0.00  0.00    -0.352 N 
ATOM     16  HE1 TRP A   1      12.360 -12.209  58.116  0.00  0.00    +0.166 HD
ATOM     17  CE3 TRP A   1       9.531  -9.196  56.376  0.00  0.00    +0.001 A 
ATOM     18  CD1 TRP A   1      12.669 -11.093  56.372  0.00  0.00    +0.068 A 
ENDBRANCH   8   9
ENDBRANCH   5   8
ENDBRANCH   1   5
BRANCH   2  19
ATOM     19  CA  MET A   2      11.393  -7.548  50.592  0.00  0.00    +0.149 C 
BRANCH  19  20
ATOM     20  C   MET A   2      11.016  -6.259  51.326  0.00  0.00    +0.241 C 
ATOM     21  O   MET A   2       9.905  -6.120  51.876  0.00  0.00    -0.273 OA
ATOM     22  N   HIS A   3      11.915  -5.298  51.401  0.00  0.00    -0.298 N 
ATOM     23  H   HIS A   3      12.840  -5.455  50.953  0.00  0.00    +0.150 HD
BRANCH  22  24
ATOM     24  CA  HIS A   3      11.687  -4.034  52.073  0.00  0.00    +0.143 C 
BRANCH  24  25
ATOM     25  C   HIS A   3      11.555  -2.965  51.002  0.00  0.00    +0.227 C 
ATOM     26  O   HIS A   3      12.083  -3.127  49.888  0.00  0.00    -0.286 OA
ENDBRANCH  24  25
BRANCH  24  27
ATOM     27  CB  HIS A   3      12.875  -3.663  52.972  0.00  0.00    +0.075 C 
BRANCH  27  28
ATOM     28  CG  HIS A   3      13.085  -4.567  54.193  0.00  0.00    +0.082 A 
ATOM     29  ND1 HIS A   3      12.780  -4.153  55.417  0.00  0.00    -0.227 NA
ATOM     30  CE1 HIS A   3      13.050  -5.195  56.184  0.00  0.00    +0.199 A 
ATOM     31  NE2 HIS A   3      13.502  -6.194  55.445  0.00  0.00    -0.221 NA
ATOM     32  CD2 HIS A   3      13.545  -5.849  54.172  0.00  0.00    +0.115 A 
ENDBRANCH  27  28
ENDBRANCH  24  27
ENDBRANCH  22  24
ENDBRANCH  19  20
BRANCH  19  33
ATOM     33  CB  MET A   2      10.481  -7.709  49.392  0.00  0.00    +0.041 C 
BRANCH  33  34
ATOM     34  CG  MET A   2      10.806  -6.699  48.240  0.00  0.00    +0.060 C 
BRANCH  34  35
ATOM     35  SD  MET A   2      12.372  -7.089  47.394  0.00  0.00    -0.139 S 
ATOM     36  CE  MET A   2      11.724  -8.391  46.379  0.00  0.00    +0.069 C 
ENDBRANCH  34  35
ENDBRANCH  33  34
ENDBRANCH  19  33
ENDBRANCH   2  19
TORSDOF 13
REMARK  Name = ../refined-set-2016/1mfa/1mfa_pocket.pdb
REMARK  113 active torsions:
REMARK  status: ('A' for Active; 'I' for Inactive)
REMARK    1  A    between atoms: _1  and  _3
REMARK    2  A    between atoms: _3  and  _4
REMARK    3  A    between atoms: _6  and  _8
REMARK    4  A    between atoms: _8  and  _9
REMARK    5  A    between atoms: _8  and  _11
REMARK    6  A    between atoms: _11  and  _12
REMARK    7  A    between atoms: _17  and  _19
REMARK    8  A    between atoms: _19  and  _20
REMARK    9  A    between atoms: _19  and  _22
REMARK   10  A    between atoms: _22  and  _23
REMARK   11  A    between atoms: _28  and  _30
REMARK   12  A    between atoms: _30  and  _31
REMARK   13  A    between atoms: _30  and  _33
REMARK   14  A    between atoms: _33  and  _34
REMARK   15  A    between atoms: _39  and  _41
REMARK   16  A    between atoms: _41  and  _42
REMARK   17  A    between atoms: _41  and  _44
REMARK   18  A    between atoms: _44  and  _45
REMARK   19  A    between atoms: _48  and  _50
REMARK   20  A    between atoms: _50  and  _51
REMARK   21  A    between atoms: _50  and  _53
REMARK   22  A    between atoms: _53  and  _54
REMARK   23  A    between atoms: _64  and  _66
REMARK   24  A    between atoms: _66  and  _67
REMARK   25  A    between atoms: _66  and  _69
REMARK   26  A    between atoms: _69  and  _70
REMARK   27  A    between atoms: _72  and  _74
REMARK   28  A    between atoms: _74  and  _75
REMARK   29  A    between atoms: _74  and  _77
REMARK   30  A    between atoms: _77  and  _78
REMARK   31  A    between atoms: _83  and  _85
REMARK   32  A    between atoms: _85  and  _86
REMARK   33  A    between atoms: _85  and  _88
REMARK   34  A    between atoms: _88  and  _89
REMARK   35  A    between atoms: _94  and  _96
REMARK   36  A    between atoms: _96  and  _97
REMARK   37  A    between atoms: _96  and  _99
REMARK   38  A    between atoms: _99  and  _100
REMARK   39  A    between atoms: _105  and  _107
REMARK   40  A    between atoms: _107  and  _108
REMARK   41  A    between atoms: _107  and  _110
REMARK   42  A    between atoms: _110  and  _111
REMARK   43  A    between atoms: _121  and  _123
REMARK   44  A    between atoms: _123  and  _124
REMARK   45  A    between atoms: _123  and  _126
REMARK   46  A    between atoms: _126  and  _127
REMARK   47  A    between atoms: _137  and  _139
REMARK   48  A    between atoms: _139  and  _140
REMARK   49  A    between atoms: _139  and  _142
REMARK   50  A    between atoms: _142  and  _143
REMARK   51  A    between atoms: _143  and  _144
REMARK   52  A    between atoms: _146  and  _148
REMARK   53  A    between atoms: _148  and  _149
REMARK   54  A    between atoms: _148  and  _151
REMARK   55  A    between atoms: _151  and  _152
REMARK   56  A    between atoms: _157  and  _159
REMARK   57  A    between atoms: _159  and  _160
REMARK   58  A    between atoms: _159  and  _162
REMARK   59  A    between atoms: _162  and  _163
REMARK   60  A    between atoms: _173  and  _175
REMARK   61  A    between atoms: _175  and  _176
REMARK   62  A    between atoms: _178  and  _180
REMARK   63  A    between atoms: _180  and  _181
REMARK   64  A    between atoms: _184  and  _186
REMARK   65  A    between atoms: _186  and  _187
REMARK   66  A    between atoms: _186  and  _189
REMARK   67  A    between atoms: _189  and  _190
REMARK   68  A    between atoms: _193  and  _195
REMARK   69  A    between atoms: _195  and  _196
REMARK   70  A    between atoms: _195  and  _198
REMARK   71  A    between atoms: _198  and  _199
REMARK   72  A    between atoms: _204  and  _205
REMARK   73  A    between atoms: _207  and  _209
REMARK   74  A    between atoms: _209  and  _210
REMARK   75  A    between atoms: _209  and  _212
REMARK   76  A    between atoms: _212  and  _213
REMARK   77  A    between atoms: _218  and  _220
REMARK   78  A    between atoms: _220  and  _221
REMARK   79  A    between atoms: _224  and  _226
REMARK   80  A    between atoms: _226  and  _227
REMARK   81  A    between atoms: _226  and  _229
REMARK   82  A    between atoms: _229  and  _230
REMARK   83  A    between atoms: _233  and  _235
REMARK   84  A    between atoms: _235  and  _236
REMARK   85  A    between atoms: _235  and  _238
REMARK   86  A    between atoms: _238  and  _239
REMARK   87  A    between atoms: _245  and  _247
REMARK   88  A    between atoms: _247  and  _248
REMARK   89  A    between atoms: _247  and  _250
REMARK   90  A    between atoms: _250  and  _251
REMARK   91  A    between atoms: _256  and  _257
REMARK   92  A    between atoms: _259  and  _261
REMARK   93  A    between atoms: _261  and  _262
REMARK   94  A    between atoms: _264  and  _266
REMARK   95  A    between atoms: _266  and  _267
REMARK   96  A    between atoms: _269  and  _271
REMARK   97  A    between atoms: _271  and  _272
REMARK   98  A    between atoms: _271  and  _274
REMARK   99  A    between atoms: _274  and  _275
REMARK  100  A    between atoms: _280  and  _282
REMARK  101  A    between atoms: _282  and  _283
REMARK  102  A    between atoms: _285  and  _287
REMARK  103  A    between atoms: _287  and  _288
REMARK  104  A    between atoms: _287  and  _290
REMARK  105  A    between atoms: _290  and  _291
REMARK  106  A    between atoms: _296  and  _297
REMARK  107  A    between atoms: _299  and  _301
REMARK  108  A    between atoms: _301  and  _302
REMARK  109  A    between atoms: _301  and  _304
REMARK  110  A    between atoms: _304  and  _305
REMARK  111  A    between atoms: _310  and  _311
REMARK  112  A    between atoms: _313  and  _315
REMARK  113  A    between atoms: _315  and  _316
REMARK                            x       y       z     vdW  Elec       q    Type
REMARK                         _______ _______ _______ _____ _____    ______ ____
ROOT
ATOM      1  CG  TRP A   1      11.856   0.502  56.783  0.00  0.00    -0.002 A 
ATOM      2  CD2 TRP A   1      10.890   0.081  57.677  0.00  0.00    +0.013 A 
ATOM      3  CE3 TRP A   1      10.067   0.678  58.643  0.00  0.00    +0.001 A 
ATOM      4  CZ3 TRP A   1       9.189  -0.129  59.362  0.00  0.00    +0.000 A 
ATOM      5  CH2 TRP A   1       9.114  -1.500  59.110  0.00  0.00    +0.001 A 
ATOM      6  CZ2 TRP A   1       9.934  -2.100  58.144  0.00  0.00    +0.017 A 
ATOM      7  CE2 TRP A   1      10.812  -1.289  57.416  0.00  0.00    +0.056 A 
ATOM      8  NE1 TRP A   1      11.685  -1.608  56.440  0.00  0.00    -0.352 N 
ATOM      9  HE1 TRP A   1      11.825  -2.568  56.066  0.00  0.00    +0.166 HD
ATOM     10  CD1 TRP A   1      12.341  -0.536  56.020  0.00  0.00    +0.068 A 
ENDROOT
BRANCH   1  11
ATOM     11  CB  TRP A   1      12.408   1.927  56.693  0.00  0.00    +0.053 C 
BRANCH  11  12
ATOM     12  CA  TRP A   1      11.913   2.818  55.547  0.00  0.00    +0.137 C 
BRANCH  12  13
ATOM     13  N   TRP A   1      12.415   4.141  55.763  0.00  0.00    -0.239 NA
ATOM     14  H   TRP A   1      12.630   4.439  56.736  0.00  0.00    +0.142 HD
ENDBRANCH  12  13
BRANCH  12  15
ATOM     15  C   TRP A   1      10.404   2.883  55.489  0.00  0.00    +0.224 C 
ATOM     16  O   TRP A   1       9.768   3.515  56.335  0.00  0.00    -0.287 OA
ENDBRANCH  12  15
ENDBRANCH  11  12
ENDBRANCH   1  11
TORSDOF 4
REMARK  Name = ../refined-set-2016/1mfa/1mfa_pocket.pdb
REMARK  113 active torsions:
REMARK  status: ('A' for Active; 'I' for Inactive)
REMARK    1  A    between atoms: _1  and  _3
REMARK    2  A    between atoms: _3  and  _4
REMARK    3  A    between atoms: _6  and  _8
REMARK    4  A    between atoms: _8  and  _9
REMARK    5  A    between atoms: _8  and  _11
REMARK    6  A    between atoms: _11  and  _12
REMARK    7  A    between atoms: _17  and  _19
REMARK    8  A    between atoms: _19  and  _20
REMARK    9  A    between atoms: _19  and  _22
REMARK   10  A    between atoms: _22  and  _23
REMARK   11  A    between atoms: _28  and  _30
REMARK   12  A    between atoms: _30  and  _31
REMARK   13  A    between atoms: _30  and  _33
REMARK   14  A    between atoms: _33  and  _34
REMARK   15  A    between atoms: _39  and  _41
REMARK   16  A    between atoms: _41  and  _42
REMARK   17  A    between atoms: _41  and  _44
REMARK   18  A    between atoms: _44  and  _45
REMARK   19  A    between atoms: _48  and  _50
REMARK   20  A    between atoms: _50  and  _51
REMARK   21  A    between atoms: _50  and  _53
REMARK   22  A    between atoms: _53  and  _54
REMARK   23  A    between atoms: _64  and  _66
REMARK   24  A    between atoms: _66  and  _67
REMARK   25  A    between atoms: _66  and  _69
REMARK   26  A    between atoms: _69  and  _70
REMARK   27  A    between atoms: _72  and  _74
REMARK   28  A    between atoms: _74  and  _75
REMARK   29  A    between atoms: _74  and  _77
REMARK   30  A    between atoms: _77  and  _78
REMARK   31  A    between atoms: _83  and  _85
REMARK   32  A    between atoms: _85  and  _86
REMARK   33  A    between atoms: _85  and  _88
REMARK   34  A    between atoms: _88  and  _89
REMARK   35  A    between atoms: _94  and  _96
REMARK   36  A    between atoms: _96  and  _97
REMARK   37  A    between atoms: _96  and  _99
REMARK   38  A    between atoms: _99  and  _100
REMARK   39  A    between atoms: _105  and  _107
REMARK   40  A    between atoms: _107  and  _108
REMARK   41  A    between atoms: _107  and  _110
REMARK   42  A    between atoms: _110  and  _111
REMARK   43  A    between atoms: _121  and  _123
REMARK   44  A    between atoms: _123  and  _124
REMARK   45  A    between atoms: _123  and  _126
REMARK   46  A    between atoms: _126  and  _127
REMARK   47  A    between atoms: _137  and  _139
REMARK   48  A    between atoms: _139  and  _140
REMARK   49  A    between atoms: _139  and  _142
REMARK   50  A    between atoms: _142  and  _143
REMARK   51  A    between atoms: _143  and  _144
REMARK   52  A    between atoms: _146  and  _148
REMARK   53  A    between atoms: _148  and  _149
REMARK   54  A    between atoms: _148  and  _151
REMARK   55  A    between atoms: _151  and  _152
REMARK   56  A    between atoms: _157  and  _159
REMARK   57  A    between atoms: _159  and  _160
REMARK   58  A    between atoms: _159  and  _162
REMARK   59  A    between atoms: _162  and  _163
REMARK   60  A    between atoms: _173  and  _175
REMARK   61  A    between atoms: _175  and  _176
REMARK   62  A    between atoms: _178  and  _180
REMARK   63  A    between atoms: _180  and  _181
REMARK   64  A    between atoms: _184  and  _186
REMARK   65  A    between atoms: _186  and  _187
REMARK   66  A    between atoms: _186  and  _189
REMARK   67  A    between atoms: _189  and  _190
REMARK   68  A    between atoms: _193  and  _195
REMARK   69  A    between atoms: _195  and  _196
REMARK   70  A    between atoms: _195  and  _198
REMARK   71  A    between atoms: _198  and  _199
REMARK   72  A    between atoms: _204  and  _205
REMARK   73  A    between atoms: _207  and  _209
REMARK   74  A    between atoms: _209  and  _210
REMARK   75  A    between atoms: _209  and  _212
REMARK   76  A    between atoms: _212  and  _213
REMARK   77  A    between atoms: _218  and  _220
REMARK   78  A    between atoms: _220  and  _221
REMARK   79  A    between atoms: _224  and  _226
REMARK   80  A    between atoms: _226  and  _227
REMARK   81  A    between atoms: _226  and  _229
REMARK   82  A    between atoms: _229  and  _230
REMARK   83  A    between atoms: _233  and  _235
REMARK   84  A    between atoms: _235  and  _236
REMARK   85  A    between atoms: _235  and  _238
REMARK   86  A    between atoms: _238  and  _239
REMARK   87  A    between atoms: _245  and  _247
REMARK   88  A    between atoms: _247  and  _248
REMARK   89  A    between atoms: _247  and  _250
REMARK   90  A    between atoms: _250  and  _251
REMARK   91  A    between atoms: _256  and  _257
REMARK   92  A    between atoms: _259  and  _261
REMARK   93  A    between atoms: _261  and  _262
REMARK   94  A    between atoms: _264  and  _266
REMARK   95  A    between atoms: _266  and  _267
REMARK   96  A    between atoms: _269  and  _271
REMARK   97  A    between atoms: _271  and  _272
REMARK   98  A    between atoms: _271  and  _274
REMARK   99  A    between atoms: _274  and  _275
REMARK  100  A    between atoms: _280  and  _282
REMARK  101  A    between atoms: _282  and  _283
REMARK  102  A    between atoms: _285  and  _287
REMARK  103  A    between atoms: _287  and  _288
REMARK  104  A    between atoms: _287  and  _290
REMARK  105  A    between atoms: _290  and  _291
REMARK  106  A    between atoms: _296  and  _297
REMARK  107  A    between atoms: _299  and  _301
REMARK  108  A    between atoms: _301  and  _302
REMARK  109  A    between atoms: _301  and  _304
REMARK  110  A    between atoms: _304  and  _305
REMARK  111  A    between atoms: _310  and  _311
REMARK  112  A    between atoms: _313  and  _315
REMARK  113  A    between atoms: _315  and  _316
REMARK                            x       y       z     vdW  Elec       q    Type
REMARK                         _______ _______ _______ _____ _____    ______ ____
ROOT
ATOM      1  CA  ILE A   3       6.796  -8.198  53.615  0.00  0.00    +0.149 C 
ENDROOT
BRANCH   1   4
ATOM      2  C   ALA A   2       7.510  -6.092  54.601  0.00  0.00    +0.241 C 
ATOM      3  O   ALA A   2       6.561  -6.057  55.395  0.00  0.00    -0.273 OA
ATOM      4  N   ILE A   3       7.666  -7.057  53.696  0.00  0.00    -0.297 N 
ATOM      5  H   ILE A   3       8.452  -6.981  53.019  0.00  0.00    +0.150 HD
BRANCH   2   6
ATOM      6  CA  ALA A   2       8.543  -4.981  54.626  0.00  0.00    +0.149 C 
ATOM      7  CB  ALA A   2       9.651  -5.429  55.555  0.00  0.00    +0.031 C 
BRANCH   6   9
ATOM      8  C   GLY A   1       8.399  -2.560  54.691  0.00  0.00    +0.240 C 
ATOM      9  N   ALA A   2       7.952  -3.743  55.077  0.00  0.00    -0.297 N 
ATOM     10  H   ALA A   2       7.144  -3.783  55.730  0.00  0.00    +0.150 HD
ATOM     11  O   GLY A   1       9.304  -2.378  53.857  0.00  0.00    -0.274 OA
BRANCH   8  12
ATOM     12  CA  GLY A   1       7.706  -1.381  55.325  0.00  0.00    +0.169 C 
BRANCH  12  13
ATOM     13  N   GLY A   1       8.294  -0.174  54.800  0.00  0.00    -0.236 NA
ATOM     14  H   GLY A   1       9.161  -0.230  54.228  0.00  0.00    +0.142 HD
ENDBRANCH  12  13
ENDBRANCH   8  12
ENDBRANCH   6   9
ENDBRANCH   2   6
ENDBRANCH   1   4
BRANCH   1  15
ATOM     15  C   ILE A   3       7.666  -9.448  53.496  0.00  0.00    +0.241 C 
ATOM     16  N   TYR A   4       7.205 -10.493  54.163  0.00  0.00    -0.298 N 
ATOM     17  H   TYR A   4       6.369 -10.376  54.771  0.00  0.00    +0.150 HD
ATOM     18  O   ILE A   3       8.746  -9.470  52.868  0.00  0.00    -0.273 OA
BRANCH  16  19
ATOM     19  CA  TYR A   4       7.830 -11.794  54.071  0.00  0.00    +0.141 C 
BRANCH  19  20
ATOM     20  C   TYR A   4       6.874 -12.642  53.234  0.00  0.00    +0.227 C 
ATOM     21  O   TYR A   4       5.839 -13.121  53.730  0.00  0.00    -0.286 OA
ENDBRANCH  19  20
BRANCH  19  22
ATOM     22  CB  TYR A   4       8.015 -12.446  55.462  0.00  0.00    +0.054 C 
BRANCH  22  23
ATOM     23  CG  TYR A   4       8.647 -13.830  55.441  0.00  0.00    -0.020 A 
ATOM     24  CD2 TYR A   4       7.926 -14.911  55.949  0.00  0.00    -0.001 A 
ATOM     25  CE2 TYR A   4       8.480 -16.184  55.927  0.00  0.00    +0.036 A 
ATOM     26  CZ  TYR A   4       9.755 -16.379  55.399  0.00  0.00    +0.134 A 
ATOM     27  CE1 TYR A   4      10.494 -15.306  54.889  0.00  0.00    +0.036 A 
ATOM     28  CD1 TYR A   4       9.935 -14.029  54.915  0.00  0.00    -0.001 A 
BRANCH  26  29
ATOM     29  OH  TYR A   4      10.281 -17.665  55.383  0.00  0.00    -0.506 OA
ATOM     30  HH  TYR A   4       9.694 -18.254  54.846  0.00  0.00    +0.292 HD
ENDBRANCH  26  29
ENDBRANCH  22  23
ENDBRANCH  19  22
ENDBRANCH  16  19
ENDBRANCH   1  15
BRANCH   1  31
ATOM     31  CB  ILE A   3       5.810  -8.074  52.383  0.00  0.00    +0.027 C 
ATOM     32  CG2 ILE A   3       6.552  -8.085  51.017  0.00  0.00    +0.002 C 
BRANCH  31  33
ATOM     33  CG1 ILE A   3       4.826  -9.243  52.456  0.00  0.00    +0.002 C 
ATOM     34  CD1 ILE A   3       3.550  -9.012  51.623  0.00  0.00    +0.000 C 
ENDBRANCH  31  33
ENDBRANCH   1  31
TORSDOF 13
REMARK  Name = ../refined-set-2016/1mfa/1mfa_pocket.pdb
REMARK  113 active torsions:
REMARK  status: ('A' for Active; 'I' for Inactive)
REMARK    1  A    between atoms: _1  and  _3
REMARK    2  A    between atoms: _3  and  _4
REMARK    3  A    between atoms: _6  and  _8
REMARK    4  A    between atoms: _8  and  _9
REMARK    5  A    between atoms: _8  and  _11
REMARK    6  A    between atoms: _11  and  _12
REMARK    7  A    between atoms: _17  and  _19
REMARK    8  A    between atoms: _19  and  _20
REMARK    9  A    between atoms: _19  and  _22
REMARK   10  A    between atoms: _22  and  _23
REMARK   11  A    between atoms: _28  and  _30
REMARK   12  A    between atoms: _30  and  _31
REMARK   13  A    between atoms: _30  and  _33
REMARK   14  A    between atoms: _33  and  _34
REMARK   15  A    between atoms: _39  and  _41
REMARK   16  A    between atoms: _41  and  _42
REMARK   17  A    between atoms: _41  and  _44
REMARK   18  A    between atoms: _44  and  _45
REMARK   19  A    between atoms: _48  and  _50
REMARK   20  A    between atoms: _50  and  _51
REMARK   21  A    between atoms: _50  and  _53
REMARK   22  A    between atoms: _53  and  _54
REMARK   23  A    between atoms: _64  and  _66
REMARK   24  A    between atoms: _66  and  _67
REMARK   25  A    between atoms: _66  and  _69
REMARK   26  A    between atoms: _69  and  _70
REMARK   27  A    between atoms: _72  and  _74
REMARK   28  A    between atoms: _74  and  _75
REMARK   29  A    between atoms: _74  and  _77
REMARK   30  A    between atoms: _77  and  _78
REMARK   31  A    between atoms: _83  and  _85
REMARK   32  A    between atoms: _85  and  _86
REMARK   33  A    between atoms: _85  and  _88
REMARK   34  A    between atoms: _88  and  _89
REMARK   35  A    between atoms: _94  and  _96
REMARK   36  A    between atoms: _96  and  _97
REMARK   37  A    between atoms: _96  and  _99
REMARK   38  A    between atoms: _99  and  _100
REMARK   39  A    between atoms: _105  and  _107
REMARK   40  A    between atoms: _107  and  _108
REMARK   41  A    between atoms: _107  and  _110
REMARK   42  A    between atoms: _110  and  _111
REMARK   43  A    between atoms: _121  and  _123
REMARK   44  A    between atoms: _123  and  _124
REMARK   45  A    between atoms: _123  and  _126
REMARK   46  A    between atoms: _126  and  _127
REMARK   47  A    between atoms: _137  and  _139
REMARK   48  A    between atoms: _139  and  _140
REMARK   49  A    between atoms: _139  and  _142
REMARK   50  A    between atoms: _142  and  _143
REMARK   51  A    between atoms: _143  and  _144
REMARK   52  A    between atoms: _146  and  _148
REMARK   53  A    between atoms: _148  and  _149
REMARK   54  A    between atoms: _148  and  _151
REMARK   55  A    between atoms: _151  and  _152
REMARK   56  A    between atoms: _157  and  _159
REMARK   57  A    between atoms: _159  and  _160
REMARK   58  A    between atoms: _159  and  _162
REMARK   59  A    between atoms: _162  and  _163
REMARK   60  A    between atoms: _173  and  _175
REMARK   61  A    between atoms: _175  and  _176
REMARK   62  A    between atoms: _178  and  _180
REMARK   63  A    between atoms: _180  and  _181
REMARK   64  A    between atoms: _184  and  _186
REMARK   65  A    between atoms: _186  and  _187
REMARK   66  A    between atoms: _186  and  _189
REMARK   67  A    between atoms: _189  and  _190
REMARK   68  A    between atoms: _193  and  _195
REMARK   69  A    between atoms: _195  and  _196
REMARK   70  A    between atoms: _195  and  _198
REMARK   71  A    between atoms: _198  and  _199
REMARK   72  A    between atoms: _204  and  _205
REMARK   73  A    between atoms: _207  and  _209
REMARK   74  A    between atoms: _209  and  _210
REMARK   75  A    between atoms: _209  and  _212
REMARK   76  A    between atoms: _212  and  _213
REMARK   77  A    between atoms: _218  and  _220
REMARK   78  A    between atoms: _220  and  _221
REMARK   79  A    between atoms: _224  and  _226
REMARK   80  A    between atoms: _226  and  _227
REMARK   81  A    between atoms: _226  and  _229
REMARK   82  A    between atoms: _229  and  _230
REMARK   83  A    between atoms: _233  and  _235
REMARK   84  A    between atoms: _235  and  _236
REMARK   85  A    between atoms: _235  and  _238
REMARK   86  A    between atoms: _238  and  _239
REMARK   87  A    between atoms: _245  and  _247
REMARK   88  A    between atoms: _247  and  _248
REMARK   89  A    between atoms: _247  and  _250
REMARK   90  A    between atoms: _250  and  _251
REMARK   91  A    between atoms: _256  and  _257
REMARK   92  A    between atoms: _259  and  _261
REMARK   93  A    between atoms: _261  and  _262
REMARK   94  A    between atoms: _264  and  _266
REMARK   95  A    between atoms: _266  and  _267
REMARK   96  A    between atoms: _269  and  _271
REMARK   97  A    between atoms: _271  and  _272
REMARK   98  A    between atoms: _271  and  _274
REMARK   99  A    between atoms: _274  and  _275
REMARK  100  A    between atoms: _280  and  _282
REMARK  101  A    between atoms: _282  and  _283
REMARK  102  A    between atoms: _285  and  _287
REMARK  103  A    between atoms: _287  and  _288
REMARK  104  A    between atoms: _287  and  _290
REMARK  105  A    between atoms: _290  and  _291
REMARK  106  A    between atoms: _296  and  _297
REMARK  107  A    between atoms: _299  and  _301
REMARK  108  A    between atoms: _301  and  _302
REMARK  109  A    between atoms: _301  and  _304
REMARK  110  A    between atoms: _304  and  _305
REMARK  111  A    between atoms: _310  and  _311
REMARK  112  A    between atoms: _313  and  _315
REMARK  113  A    between atoms: _315  and  _316
REMARK                            x       y       z     vdW  Elec       q    Type
REMARK                         _______ _______ _______ _____ _____    ______ ____
ROOT
ATOM      1  CB  ASN A   1       3.865 -16.750  56.618  0.00  0.00    +0.110 C 
ENDROOT
BRANCH   1   2
ATOM      2  CG  ASN A   1       4.673 -15.725  57.403  0.00  0.00    +0.221 C 
ATOM      3  ND2 ASN A   1       5.082 -16.103  58.600  0.00  0.00    -0.329 N 
ATOM      4 HD21 ASN A   1       5.683 -15.472  59.167  0.00  0.00    +0.145 HD
ATOM      5 HD22 ASN A   1       4.803 -17.032  58.976  0.00  0.00    +0.145 HD
ATOM      6  OD1 ASN A   1       4.994 -14.620  56.934  0.00  0.00    -0.275 OA
ENDBRANCH   1   2
BRANCH   1   7
ATOM      7  CA  ASN A   1       3.650 -16.347  55.159  0.00  0.00    +0.142 C 
BRANCH   7   8
ATOM      8  N   ASN A   1       4.934 -16.244  54.468  0.00  0.00    -0.239 NA
ATOM      9  H   ASN A   1       5.520 -15.395  54.602  0.00  0.00    +0.142 HD
ENDBRANCH   7   8
BRANCH   7  10
ATOM     10  C   ASN A   1       2.870 -15.042  55.132  0.00  0.00    +0.225 C 
ATOM     11  O   ASN A   1       1.939 -14.859  55.920  0.00  0.00    -0.287 OA
ENDBRANCH   7  10
ENDBRANCH   1   7
TORSDOF 4
REMARK  Name = ../refined-set-2016/1mfa/1mfa_pocket.pdb
REMARK  113 active torsions:
REMARK  status: ('A' for Active; 'I' for Inactive)
REMARK    1  A    between atoms: _1  and  _3
REMARK    2  A    between atoms: _3  and  _4
REMARK    3  A    between atoms: _6  and  _8
REMARK    4  A    between atoms: _8  and  _9
REMARK    5  A    between atoms: _8  and  _11
REMARK    6  A    between atoms: _11  and  _12
REMARK    7  A    between atoms: _17  and  _19
REMARK    8  A    between atoms: _19  and  _20
REMARK    9  A    between atoms: _19  and  _22
REMARK   10  A    between atoms: _22  and  _23
REMARK   11  A    between atoms: _28  and  _30
REMARK   12  A    between atoms: _30  and  _31
REMARK   13  A    between atoms: _30  and  _33
REMARK   14  A    between atoms: _33  and  _34
REMARK   15  A    between atoms: _39  and  _41
REMARK   16  A    between atoms: _41  and  _42
REMARK   17  A    between atoms: _41  and  _44
REMARK   18  A    between atoms: _44  and  _45
REMARK   19  A    between atoms: _48  and  _50
REMARK   20  A    between atoms: _50  and  _51
REMARK   21  A    between atoms: _50  and  _53
REMARK   22  A    between atoms: _53  and  _54
REMARK   23  A    between atoms: _64  and  _66
REMARK   24  A    between atoms: _66  and  _67
REMARK   25  A    between atoms: _66  and  _69
REMARK   26  A    between atoms: _69  and  _70
REMARK   27  A    between atoms: _72  and  _74
REMARK   28  A    between atoms: _74  and  _75
REMARK   29  A    between atoms: _74  and  _77
REMARK   30  A    between atoms: _77  and  _78
REMARK   31  A    between atoms: _83  and  _85
REMARK   32  A    between atoms: _85  and  _86
REMARK   33  A    between atoms: _85  and  _88
REMARK   34  A    between atoms: _88  and  _89
REMARK   35  A    between atoms: _94  and  _96
REMARK   36  A    between atoms: _96  and  _97
REMARK   37  A    between atoms: _96  and  _99
REMARK   38  A    between atoms: _99  and  _100
REMARK   39  A    between atoms: _105  and  _107
REMARK   40  A    between atoms: _107  and  _108
REMARK   41  A    between atoms: _107  and  _110
REMARK   42  A    between atoms: _110  and  _111
REMARK   43  A    between atoms: _121  and  _123
REMARK   44  A    between atoms: _123  and  _124
REMARK   45  A    between atoms: _123  and  _126
REMARK   46  A    between atoms: _126  and  _127
REMARK   47  A    between atoms: _137  and  _139
REMARK   48  A    between atoms: _139  and  _140
REMARK   49  A    between atoms: _139  and  _142
REMARK   50  A    between atoms: _142  and  _143
REMARK   51  A    between atoms: _143  and  _144
REMARK   52  A    between atoms: _146  and  _148
REMARK   53  A    between atoms: _148  and  _149
REMARK   54  A    between atoms: _148  and  _151
REMARK   55  A    between atoms: _151  and  _152
REMARK   56  A    between atoms: _157  and  _159
REMARK   57  A    between atoms: _159  and  _160
REMARK   58  A    between atoms: _159  and  _162
REMARK   59  A    between atoms: _162  and  _163
REMARK   60  A    between atoms: _173  and  _175
REMARK   61  A    between atoms: _175  and  _176
REMARK   62  A    between atoms: _178  and  _180
REMARK   63  A    between atoms: _180  and  _181
REMARK   64  A    between atoms: _184  and  _186
REMARK   65  A    between atoms: _186  and  _187
REMARK   66  A    between atoms: _186  and  _189
REMARK   67  A    between atoms: _189  and  _190
REMARK   68  A    between atoms: _193  and  _195
REMARK   69  A    between atoms: _195  and  _196
REMARK   70  A    between atoms: _195  and  _198
REMARK   71  A    between atoms: _198  and  _199
REMARK   72  A    between atoms: _204  and  _205
REMARK   73  A    between atoms: _207  and  _209
REMARK   74  A    between atoms: _209  and  _210
REMARK   75  A    between atoms: _209  and  _212
REMARK   76  A    between atoms: _212  and  _213
REMARK   77  A    between atoms: _218  and  _220
REMARK   78  A    between atoms: _220  and  _221
REMARK   79  A    between atoms: _224  and  _226
REMARK   80  A    between atoms: _226  and  _227
REMARK   81  A    between atoms: _226  and  _229
REMARK   82  A    between atoms: _229  and  _230
REMARK   83  A    between atoms: _233  and  _235
REMARK   84  A    between atoms: _235  and  _236
REMARK   85  A    between atoms: _235  and  _238
REMARK   86  A    between atoms: _238  and  _239
REMARK   87  A    between atoms: _245  and  _247
REMARK   88  A    between atoms: _247  and  _248
REMARK   89  A    between atoms: _247  and  _250
REMARK   90  A    between atoms: _250  and  _251
REMARK   91  A    between atoms: _256  and  _257
REMARK   92  A    between atoms: _259  and  _261
REMARK   93  A    between atoms: _261  and  _262
REMARK   94  A    between atoms: _264  and  _266
REMARK   95  A    between atoms: _266  and  _267
REMARK   96  A    between atoms: _269  and  _271
REMARK   97  A    between atoms: _271  and  _272
REMARK   98  A    between atoms: _271  and  _274
REMARK   99  A    between atoms: _274  and  _275
REMARK  100  A    between atoms: _280  and  _282
REMARK  101  A    between atoms: _282  and  _283
REMARK  102  A    between atoms: _285  and  _287
REMARK  103  A    between atoms: _287  and  _288
REMARK  104  A    between atoms: _287  and  _290
REMARK  105  A    between atoms: _290  and  _291
REMARK  106  A    between atoms: _296  and  _297
REMARK  107  A    between atoms: _299  and  _301
REMARK  108  A    between atoms: _301  and  _302
REMARK  109  A    between atoms: _301  and  _304
REMARK  110  A    between atoms: _304  and  _305
REMARK  111  A    between atoms: _310  and  _311
REMARK  112  A    between atoms: _313  and  _315
REMARK  113  A    between atoms: _315  and  _316
REMARK                            x       y       z     vdW  Elec       q    Type
REMARK                         _______ _______ _______ _____ _____    ______ ____
ROOT
ATOM      1  CA  PHE A   3       5.751  -4.581  59.150  0.00  0.00    +0.153 C 
ENDROOT
BRANCH   1   4
ATOM      2  C   THR A   2       4.574  -6.565  58.320  0.00  0.00    +0.243 C 
ATOM      3  O   THR A   2       4.058  -6.790  59.422  0.00  0.00    -0.273 OA
ATOM      4  N   PHE A   3       5.445  -5.581  58.144  0.00  0.00    -0.297 N 
ATOM      5  H   PHE A   3       5.938  -5.522  57.230  0.00  0.00    +0.150 HD
BRANCH   2   6
ATOM      6  CA  THR A   2       4.192  -7.398  57.099  0.00  0.00    +0.176 C 
BRANCH   6   8
ATOM      7  C   ALA A   1       4.340  -9.836  56.919  0.00  0.00    +0.238 C 
ATOM      8  N   THR A   2       3.781  -8.751  57.444  0.00  0.00    -0.295 N 
ATOM      9  H   THR A   2       3.013  -8.874  58.134  0.00  0.00    +0.150 HD
ATOM     10  O   ALA A   1       5.219  -9.758  56.045  0.00  0.00    -0.274 OA
BRANCH   7  11
ATOM     11  CA  ALA A   1       3.828 -11.207  57.385  0.00  0.00    +0.145 C 
ATOM     12  CB  ALA A   1       4.795 -11.796  58.386  0.00  0.00    +0.028 C 
BRANCH  11  13
ATOM     13  N   ALA A   1       3.705 -12.110  56.246  0.00  0.00    -0.238 NA
ATOM     14  H   ALA A   1       4.348 -12.923  56.157  0.00  0.00    +0.142 HD
ENDBRANCH  11  13
ENDBRANCH   7  11
ENDBRANCH   6   8
BRANCH   6  15
ATOM     15  CB  THR A   2       3.066  -6.599  56.333  0.00  0.00    +0.137 C 
ATOM     16  CG2 THR A   2       2.695  -7.258  55.010  0.00  0.00    +0.034 C 
BRANCH  15  17
ATOM     17  OG1 THR A   2       1.903  -6.511  57.172  0.00  0.00    -0.382 OA
ATOM     18  HG1 THR A   2       2.137  -6.039  58.010  0.00  0.00    +0.210 HD
ENDBRANCH  15  17
ENDBRANCH   6  15
ENDBRANCH   2   6
ENDBRANCH   1   4
BRANCH   1  19
ATOM     19  C   PHE A   3       5.621  -3.281  58.370  0.00  0.00    +0.241 C 
ATOM     20  N   TYR A   4       4.869  -2.308  58.871  0.00  0.00    -0.298 N 
ATOM     21  H   TYR A   4       4.334  -2.487  59.745  0.00  0.00    +0.150 HD
ATOM     22  O   PHE A   3       6.186  -3.166  57.275  0.00  0.00    -0.273 OA
BRANCH  20  23
ATOM     23  CA  TYR A   4       4.768  -1.010  58.245  0.00  0.00    +0.141 C 
BRANCH  23  24
ATOM     24  C   TYR A   4       5.392   0.053  59.105  0.00  0.00    +0.227 C 
ATOM     25  O   TYR A   4       5.396  -0.042  60.336  0.00  0.00    -0.286 OA
ENDBRANCH  23  24
BRANCH  23  26
ATOM     26  CB  TYR A   4       3.337  -0.570  58.023  0.00  0.00    +0.054 C 
BRANCH  26  27
ATOM     27  CG  TYR A   4       2.647  -1.337  56.907  0.00  0.00    -0.020 A 
ATOM     28  CD2 TYR A   4       2.055  -2.571  57.190  0.00  0.00    -0.001 A 
ATOM     29  CE2 TYR A   4       1.405  -3.276  56.177  0.00  0.00    +0.036 A 
ATOM     30  CZ  TYR A   4       1.354  -2.753  54.879  0.00  0.00    +0.134 A 
ATOM     31  CE1 TYR A   4       1.938  -1.518  54.588  0.00  0.00    +0.036 A 
ATOM     32  CD1 TYR A   4       2.591  -0.809  55.595  0.00  0.00    -0.001 A 
BRANCH  30  33
ATOM     33  OH  TYR A   4       0.733  -3.487  53.891  0.00  0.00    -0.506 OA
ATOM     34  HH  TYR A   4       0.380  -4.327  54.278  0.00  0.00    +0.292 HD
ENDBRANCH  30  33
ENDBRANCH  26  27
ENDBRANCH  23  26
ENDBRANCH  20  23
ENDBRANCH   1  19
BRANCH   1  35
ATOM     35  CB  PHE A   3       7.200  -4.698  59.697  0.00  0.00    +0.055 C 
BRANCH  35  36
ATOM     36  CG  PHE A   3       7.384  -5.857  60.690  0.00  0.00    -0.020 A 
ATOM     37  CD2 PHE A   3       7.083  -5.673  62.054  0.00  0.00    -0.004 A 
ATOM     38  CE2 PHE A   3       7.231  -6.747  62.941  0.00  0.00    -0.000 A 
ATOM     39  CZ  PHE A   3       7.669  -7.993  62.486  0.00  0.00    -0.000 A 
ATOM     40  CE1 PHE A   3       7.969  -8.179  61.142  0.00  0.00    -0.000 A 
ATOM     41  CD1 PHE A   3       7.827  -7.113  60.248  0.00  0.00    -0.004 A 
ENDBRANCH  35  36
ENDBRANCH   1  35
TORSDOF 15
REMARK  Name = ../refined-set-2016/1mfa/1mfa_pocket.pdb
REMARK  113 active torsions:
REMARK  status: ('A' for Active; 'I' for Inactive)
REMARK    1  A    between atoms: _1  and  _3
REMARK    2  A    between atoms: _3  and  _4
REMARK    3  A    between atoms: _6  and  _8
REMARK    4  A    between atoms: _8  and  _9
REMARK    5  A    between atoms: _8  and  _11
REMARK    6  A    between atoms: _11  and  _12
REMARK    7  A    between atoms: _17  and  _19
REMARK    8  A    between atoms: _19  and  _20
REMARK    9  A    between atoms: _19  and  _22
REMARK   10  A    between atoms: _22  and  _23
REMARK   11  A    between atoms: _28  and  _30
REMARK   12  A    between atoms: _30  and  _31
REMARK   13  A    between atoms: _30  and  _33
REMARK   14  A    between atoms: _33  and  _34
REMARK   15  A    between atoms: _39  and  _41
REMARK   16  A    between atoms: _41  and  _42
REMARK   17  A    between atoms: _41  and  _44
REMARK   18  A    between atoms: _44  and  _45
REMARK   19  A    between atoms: _48  and  _50
REMARK   20  A    between atoms: _50  and  _51
REMARK   21  A    between atoms: _50  and  _53
REMARK   22  A    between atoms: _53  and  _54
REMARK   23  A    between atoms: _64  and  _66
REMARK   24  A    between atoms: _66  and  _67
REMARK   25  A    between atoms: _66  and  _69
REMARK   26  A    between atoms: _69  and  _70
REMARK   27  A    between atoms: _72  and  _74
REMARK   28  A    between atoms: _74  and  _75
REMARK   29  A    between atoms: _74  and  _77
REMARK   30  A    between atoms: _77  and  _78
REMARK   31  A    between atoms: _83  and  _85
REMARK   32  A    between atoms: _85  and  _86
REMARK   33  A    between atoms: _85  and  _88
REMARK   34  A    between atoms: _88  and  _89
REMARK   35  A    between atoms: _94  and  _96
REMARK   36  A    between atoms: _96  and  _97
REMARK   37  A    between atoms: _96  and  _99
REMARK   38  A    between atoms: _99  and  _100
REMARK   39  A    between atoms: _105  and  _107
REMARK   40  A    between atoms: _107  and  _108
REMARK   41  A    between atoms: _107  and  _110
REMARK   42  A    between atoms: _110  and  _111
REMARK   43  A    between atoms: _121  and  _123
REMARK   44  A    between atoms: _123  and  _124
REMARK   45  A    between atoms: _123  and  _126
REMARK   46  A    between atoms: _126  and  _127
REMARK   47  A    between atoms: _137  and  _139
REMARK   48  A    between atoms: _139  and  _140
REMARK   49  A    between atoms: _139  and  _142
REMARK   50  A    between atoms: _142  and  _143
REMARK   51  A    between atoms: _143  and  _144
REMARK   52  A    between atoms: _146  and  _148
REMARK   53  A    between atoms: _148  and  _149
REMARK   54  A    between atoms: _148  and  _151
REMARK   55  A    between atoms: _151  and  _152
REMARK   56  A    between atoms: _157  and  _159
REMARK   57  A    between atoms: _159  and  _160
REMARK   58  A    between atoms: _159  and  _162
REMARK   59  A    between atoms: _162  and  _163
REMARK   60  A    between atoms: _173  and  _175
REMARK   61  A    between atoms: _175  and  _176
REMARK   62  A    between atoms: _178  and  _180
REMARK   63  A    between atoms: _180  and  _181
REMARK   64  A    between atoms: _184  and  _186
REMARK   65  A    between atoms: _186  and  _187
REMARK   66  A    between atoms: _186  and  _189
REMARK   67  A    between atoms: _189  and  _190
REMARK   68  A    between atoms: _193  and  _195
REMARK   69  A    between atoms: _195  and  _196
REMARK   70  A    between atoms: _195  and  _198
REMARK   71  A    between atoms: _198  and  _199
REMARK   72  A    between atoms: _204  and  _205
REMARK   73  A    between atoms: _207  and  _209
REMARK   74  A    between atoms: _209  and  _210
REMARK   75  A    between atoms: _209  and  _212
REMARK   76  A    between atoms: _212  and  _213
REMARK   77  A    between atoms: _218  and  _220
REMARK   78  A    between atoms: _220  and  _221
REMARK   79  A    between atoms: _224  and  _226
REMARK   80  A    between atoms: _226  and  _227
REMARK   81  A    between atoms: _226  and  _229
REMARK   82  A    between atoms: _229  and  _230
REMARK   83  A    between atoms: _233  and  _235
REMARK   84  A    between atoms: _235  and  _236
REMARK   85  A    between atoms: _235  and  _238
REMARK   86  A    between atoms: _238  and  _239
REMARK   87  A    between atoms: _245  and  _247
REMARK   88  A    between atoms: _247  and  _248
REMARK   89  A    between atoms: _247  and  _250
REMARK   90  A    between atoms: _250  and  _251
REMARK   91  A    between atoms: _256  and  _257
REMARK   92  A    between atoms: _259  and  _261
REMARK   93  A    between atoms: _261  and  _262
REMARK   94  A    between atoms: _264  and  _266
REMARK   95  A    between atoms: _266  and  _267
REMARK   96  A    between atoms: _269  and  _271
REMARK   97  A    between atoms: _271  and  _272
REMARK   98  A    between atoms: _271  and  _274
REMARK   99  A    between atoms: _274  and  _275
REMARK  100  A    between atoms: _280  and  _282
REMARK  101  A    between atoms: _282  and  _283
REMARK  102  A    between atoms: _285  and  _287
REMARK  103  A    between atoms: _287  and  _288
REMARK  104  A    between atoms: _287  and  _290
REMARK  105  A    between atoms: _290  and  _291
REMARK  106  A    between atoms: _296  and  _297
REMARK  107  A    between atoms: _299  and  _301
REMARK  108  A    between atoms: _301  and  _302
REMARK  109  A    between atoms: _301  and  _304
REMARK  110  A    between atoms: _304  and  _305
REMARK  111  A    between atoms: _310  and  _311
REMARK  112  A    between atoms: _313  and  _315
REMARK  113  A    between atoms: _315  and  _316
REMARK                            x       y       z     vdW  Elec       q    Type
REMARK                         _______ _______ _______ _____ _____    ______ ____
ROOT
ATOM      1  CA  TYR A   5      19.169  -6.902  57.894  0.00  0.00    +0.153 C 
ENDROOT
BRANCH   1   4
ATOM      2  C   GLY A   4      19.461  -7.902  60.116  0.00  0.00    +0.243 C 
ATOM      3  O   GLY A   4      20.363  -7.091  60.354  0.00  0.00    -0.273 OA
ATOM      4  N   TYR A   5      18.798  -7.867  58.939  0.00  0.00    -0.297 N 
ATOM      5  H   TYR A   5      18.016  -8.531  58.770  0.00  0.00    +0.150 HD
BRANCH   2   6
ATOM      6  CA  GLY A   4      19.130  -8.935  61.193  0.00  0.00    +0.176 C 
BRANCH   6   8
ATOM      7  C   HIS A   3      18.331 -10.967  60.141  0.00  0.00    +0.241 C 
ATOM      8  N   GLY A   4      18.086  -9.862  60.830  0.00  0.00    -0.295 N 
ATOM      9  H   GLY A   4      17.108  -9.656  61.119  0.00  0.00    +0.150 HD
ATOM     10  O   HIS A   3      19.455 -11.205  59.708  0.00  0.00    -0.273 OA
BRANCH   7  11
ATOM     11  CA  HIS A   3      17.165 -11.899  59.875  0.00  0.00    +0.155 C 
BRANCH  11  13
ATOM     12  C   GLY A   2      16.700 -11.137  57.626  0.00  0.00    +0.243 C 
ATOM     13  N   HIS A   3      17.066 -12.134  58.429  0.00  0.00    -0.297 N 
ATOM     14  H   HIS A   3      17.280 -13.072  58.035  0.00  0.00    +0.150 HD
ATOM     15  O   GLY A   2      16.428  -9.998  58.059  0.00  0.00    -0.273 OA
BRANCH  12  16
ATOM     16  CA  GLY A   2      16.636 -11.445  56.135  0.00  0.00    +0.176 C 
BRANCH  16  18
ATOM     17  C   GLY A   1      16.223  -9.977  54.220  0.00  0.00    +0.240 C 
ATOM     18  N   GLY A   2      16.702 -10.168  55.449  0.00  0.00    -0.295 N 
ATOM     19  H   GLY A   2      17.144  -9.364  55.939  0.00  0.00    +0.150 HD
ATOM     20  O   GLY A   1      15.645 -10.893  53.629  0.00  0.00    -0.274 OA
BRANCH  17  21
ATOM     21  CA  GLY A   1      16.368  -8.560  53.659  0.00  0.00    +0.169 C 
BRANCH  21  22
ATOM     22  N   GLY A   1      15.980  -8.441  52.261  0.00  0.00    -0.236 NA
ATOM     23  H   GLY A   1      15.027  -8.737  51.970  0.00  0.00    +0.142 HD
ENDBRANCH  21  22
ENDBRANCH  17  21
ENDBRANCH  16  18
ENDBRANCH  12  16
ENDBRANCH  11  13
BRANCH  11  24
ATOM     24  CB  HIS A   3      17.399 -13.219  60.660  0.00  0.00    +0.076 C 
BRANCH  24  25
ATOM     25  CG  HIS A   3      17.571 -12.997  62.172  0.00  0.00    +0.082 A 
ATOM     26  ND1 HIS A   3      16.541 -12.671  62.929  0.00  0.00    -0.227 NA
ATOM     27  CE1 HIS A   3      17.080 -12.454  64.111  0.00  0.00    +0.199 A 
ATOM     28  NE2 HIS A   3      18.381 -12.651  64.064  0.00  0.00    -0.221 NA
ATOM     29  CD2 HIS A   3      18.757 -12.998  62.857  0.00  0.00    +0.115 A 
ENDBRANCH  24  25
ENDBRANCH  11  24
ENDBRANCH   7  11
ENDBRANCH   6   8
ENDBRANCH   2   6
ENDBRANCH   1   4
BRANCH   1  30
ATOM     30  C   TYR A   5      18.034  -6.637  56.918  0.00  0.00    +0.241 C 
ATOM     31  O   TYR A   5      17.182  -7.499  56.681  0.00  0.00    -0.273 OA
ATOM     32  N   TYR A   6      18.017  -5.429  56.350  0.00  0.00    -0.297 N 
ATOM     33  H   TYR A   6      18.776  -4.746  56.546  0.00  0.00    +0.150 HD
BRANCH  32  34
ATOM     34  CA  TYR A   6      16.930  -5.079  55.458  0.00  0.00    +0.153 C 
BRANCH  34  35
ATOM     35  C   TYR A   6      17.320  -5.094  53.968  0.00  0.00    +0.241 C 
ATOM     36  N   GLY A   7      18.618  -4.984  53.633  0.00  0.00    -0.296 N 
ATOM     37  H   GLY A   7      19.357  -5.072  54.360  0.00  0.00    +0.150 HD
ATOM     38  O   TYR A   6      16.411  -5.209  53.141  0.00  0.00    -0.273 OA
BRANCH  36  39
ATOM     39  CA  GLY A   7      18.982  -4.739  52.232  0.00  0.00    +0.163 C 
BRANCH  39  40
ATOM     40  C   GLY A   7      20.375  -5.151  51.867  0.00  0.00    +0.229 C 
ATOM     41  O   GLY A   7      21.289  -4.318  51.829  0.00  0.00    -0.286 OA
ENDBRANCH  39  40
ENDBRANCH  36  39
ENDBRANCH  34  35
BRANCH  34  42
ATOM     42  CB  TYR A   6      16.354  -3.679  55.833  0.00  0.00    +0.055 C 
BRANCH  42  43
ATOM     43  CG  TYR A   6      17.301  -2.532  55.563  0.00  0.00    -0.020 A 
ATOM     44  CD2 TYR A   6      18.228  -2.127  56.532  0.00  0.00    -0.001 A 
ATOM     45  CE2 TYR A   6      19.166  -1.138  56.248  0.00  0.00    +0.036 A 
ATOM     46  CZ  TYR A   6      19.167  -0.559  54.965  0.00  0.00    +0.134 A 
ATOM     47  CE1 TYR A   6      18.243  -0.943  53.991  0.00  0.00    +0.036 A 
ATOM     48  CD1 TYR A   6      17.301  -1.922  54.282  0.00  0.00    -0.001 A 
BRANCH  46  49
ATOM     49  OH  TYR A   6      20.095   0.384  54.611  0.00  0.00    -0.506 OA
ATOM     50  HH  TYR A   6      20.016   1.165  55.214  0.00  0.00    +0.292 HD
ENDBRANCH  46  49
ENDBRANCH  42  43
ENDBRANCH  34  42
ENDBRANCH  32  34
ENDBRANCH   1  30
BRANCH   1  51
ATOM     51  CB  TYR A   5      20.431  -7.387  57.098  0.00  0.00    +0.055 C 
BRANCH  51  52
ATOM     52  CG  TYR A   5      20.288  -8.624  56.206  0.00  0.00    -0.020 A 
ATOM     53  CD2 TYR A   5      20.369  -9.906  56.749  0.00  0.00    -0.001 A 
ATOM     54  CE2 TYR A   5      20.204 -11.026  55.921  0.00  0.00    +0.036 A 
ATOM     55  CZ  TYR A   5      19.960 -10.837  54.543  0.00  0.00    +0.134 A 
ATOM     56  CE1 TYR A   5      19.874  -9.556  53.995  0.00  0.00    +0.036 A 
ATOM     57  CD1 TYR A   5      20.038  -8.445  54.825  0.00  0.00    -0.001 A 
BRANCH  55  58
ATOM     58  OH  TYR A   5      19.789 -11.940  53.708  0.00  0.00    -0.506 OA
ATOM     59  HH  TYR A   5      20.479 -11.925  52.998  0.00  0.00    +0.292 HD
ENDBRANCH  55  58
ENDBRANCH  51  52
ENDBRANCH   1  51
TORSDOF 22
REMARK  Name = ../refined-set-2016/1mfa/1mfa_pocket.pdb
REMARK  113 active torsions:
REMARK  status: ('A' for Active; 'I' for Inactive)
REMARK    1  A    between atoms: _1  and  _3
REMARK    2  A    between atoms: _3  and  _4
REMARK    3  A    between atoms: _6  and  _8
REMARK    4  A    between atoms: _8  and  _9
REMARK    5  A    between atoms: _8  and  _11
REMARK    6  A    between atoms: _11  and  _12
REMARK    7  A    between atoms: _17  and  _19
REMARK    8  A    between atoms: _19  and  _20
REMARK    9  A    between atoms: _19  and  _22
REMARK   10  A    between atoms: _22  and  _23
REMARK   11  A    between atoms: _28  and  _30
REMARK   12  A    between atoms: _30  and  _31
REMARK   13  A    between atoms: _30  and  _33
REMARK   14  A    between atoms: _33  and  _34
REMARK   15  A    between atoms: _39  and  _41
REMARK   16  A    between atoms: _41  and  _42
REMARK   17  A    between atoms: _41  and  _44
REMARK   18  A    between atoms: _44  and  _45
REMARK   19  A    between atoms: _48  and  _50
REMARK   20  A    between atoms: _50  and  _51
REMARK   21  A    between atoms: _50  and  _53
REMARK   22  A    between atoms: _53  and  _54
REMARK   23  A    between atoms: _64  and  _66
REMARK   24  A    between atoms: _66  and  _67
REMARK   25  A    between atoms: _66  and  _69
REMARK   26  A    between atoms: _69  and  _70
REMARK   27  A    between atoms: _72  and  _74
REMARK   28  A    between atoms: _74  and  _75
REMARK   29  A    between atoms: _74  and  _77
REMARK   30  A    between atoms: _77  and  _78
REMARK   31  A    between atoms: _83  and  _85
REMARK   32  A    between atoms: _85  and  _86
REMARK   33  A    between atoms: _85  and  _88
REMARK   34  A    between atoms: _88  and  _89
REMARK   35  A    between atoms: _94  and  _96
REMARK   36  A    between atoms: _96  and  _97
REMARK   37  A    between atoms: _96  and  _99
REMARK   38  A    between atoms: _99  and  _100
REMARK   39  A    between atoms: _105  and  _107
REMARK   40  A    between atoms: _107  and  _108
REMARK   41  A    between atoms: _107  and  _110
REMARK   42  A    between atoms: _110  and  _111
REMARK   43  A    between atoms: _121  and  _123
REMARK   44  A    between atoms: _123  and  _124
REMARK   45  A    between atoms: _123  and  _126
REMARK   46  A    between atoms: _126  and  _127
REMARK   47  A    between atoms: _137  and  _139
REMARK   48  A    between atoms: _139  and  _140
REMARK   49  A    between atoms: _139  and  _142
REMARK   50  A    between atoms: _142  and  _143
REMARK   51  A    between atoms: _143  and  _144
REMARK   52  A    between atoms: _146  and  _148
REMARK   53  A    between atoms: _148  and  _149
REMARK   54  A    between atoms: _148  and  _151
REMARK   55  A    between atoms: _151  and  _152
REMARK   56  A    between atoms: _157  and  _159
REMARK   57  A    between atoms: _159  and  _160
REMARK   58  A    between atoms: _159  and  _162
REMARK   59  A    between atoms: _162  and  _163
REMARK   60  A    between atoms: _173  and  _175
REMARK   61  A    between atoms: _175  and  _176
REMARK   62  A    between atoms: _178  and  _180
REMARK   63  A    between atoms: _180  and  _181
REMARK   64  A    between atoms: _184  and  _186
REMARK   65  A    between atoms: _186  and  _187
REMARK   66  A    between atoms: _186  and  _189
REMARK   67  A    between atoms: _189  and  _190
REMARK   68  A    between atoms: _193  and  _195
REMARK   69  A    between atoms: _195  and  _196
REMARK   70  A    between atoms: _195  and  _198
REMARK   71  A    between atoms: _198  and  _199
REMARK   72  A    between atoms: _204  and  _205
REMARK   73  A    between atoms: _207  and  _209
REMARK   74  A    between atoms: _209  and  _210
REMARK   75  A    between atoms: _209  and  _212
REMARK   76  A    between atoms: _212  and  _213
REMARK   77  A    between atoms: _218  and  _220
REMARK   78  A    between atoms: _220  and  _221
REMARK   79  A    between atoms: _224  and  _226
REMARK   80  A    between atoms: _226  and  _227
REMARK   81  A    between atoms: _226  and  _229
REMARK   82  A    between atoms: _229  and  _230
REMARK   83  A    between atoms: _233  and  _235
REMARK   84  A    between atoms: _235  and  _236
REMARK   85  A    between atoms: _235  and  _238
REMARK   86  A    between atoms: _238  and  _239
REMARK   87  A    between atoms: _245  and  _247
REMARK   88  A    between atoms: _247  and  _248
REMARK   89  A    between atoms: _247  and  _250
REMARK   90  A    between atoms: _250  and  _251
REMARK   91  A    between atoms: _256  and  _257
REMARK   92  A    between atoms: _259  and  _261
REMARK   93  A    between atoms: _261  and  _262
REMARK   94  A    between atoms: _264  and  _266
REMARK   95  A    between atoms: _266  and  _267
REMARK   96  A    between atoms: _269  and  _271
REMARK   97  A    between atoms: _271  and  _272
REMARK   98  A    between atoms: _271  and  _274
REMARK   99  A    between atoms: _274  and  _275
REMARK  100  A    between atoms: _280  and  _282
REMARK  101  A    between atoms: _282  and  _283
REMARK  102  A    between atoms: _285  and  _287
REMARK  103  A    between atoms: _287  and  _288
REMARK  104  A    between atoms: _287  and  _290
REMARK  105  A    between atoms: _290  and  _291
REMARK  106  A    between atoms: _296  and  _297
REMARK  107  A    between atoms: _299  and  _301
REMARK  108  A    between atoms: _301  and  _302
REMARK  109  A    between atoms: _301  and  _304
REMARK  110  A    between atoms: _304  and  _305
REMARK  111  A    between atoms: _310  and  _311
REMARK  112  A    between atoms: _313  and  _315
REMARK  113  A    between atoms: _315  and  _316
REMARK                            x       y       z     vdW  Elec       q    Type
REMARK                         _______ _______ _______ _____ _____    ______ ____
ROOT
ATOM      1  O   HOH     1      14.260  -8.300  57.198  0.00  0.00    +0.000 OA
ENDROOT
TORSDOF 0
REMARK  Name = ../refined-set-2016/1mfa/1mfa_pocket.pdb
REMARK  113 active torsions:
REMARK  status: ('A' for Active; 'I' for Inactive)
REMARK    1  A    between atoms: _1  and  _3
REMARK    2  A    between atoms: _3  and  _4
REMARK    3  A    between atoms: _6  and  _8
REMARK    4  A    between atoms: _8  and  _9
REMARK    5  A    between atoms: _8  and  _11
REMARK    6  A    between atoms: _11  and  _12
REMARK    7  A    between atoms: _17  and  _19
REMARK    8  A    between atoms: _19  and  _20
REMARK    9  A    between atoms: _19  and  _22
REMARK   10  A    between atoms: _22  and  _23
REMARK   11  A    between atoms: _28  and  _30
REMARK   12  A    between atoms: _30  and  _31
REMARK   13  A    between atoms: _30  and  _33
REMARK   14  A    between atoms: _33  and  _34
REMARK   15  A    between atoms: _39  and  _41
REMARK   16  A    between atoms: _41  and  _42
REMARK   17  A    between atoms: _41  and  _44
REMARK   18  A    between atoms: _44  and  _45
REMARK   19  A    between atoms: _48  and  _50
REMARK   20  A    between atoms: _50  and  _51
REMARK   21  A    between atoms: _50  and  _53
REMARK   22  A    between atoms: _53  and  _54
REMARK   23  A    between atoms: _64  and  _66
REMARK   24  A    between atoms: _66  and  _67
REMARK   25  A    between atoms: _66  and  _69
REMARK   26  A    between atoms: _69  and  _70
REMARK   27  A    between atoms: _72  and  _74
REMARK   28  A    between atoms: _74  and  _75
REMARK   29  A    between atoms: _74  and  _77
REMARK   30  A    between atoms: _77  and  _78
REMARK   31  A    between atoms: _83  and  _85
REMARK   32  A    between atoms: _85  and  _86
REMARK   33  A    between atoms: _85  and  _88
REMARK   34  A    between atoms: _88  and  _89
REMARK   35  A    between atoms: _94  and  _96
REMARK   36  A    between atoms: _96  and  _97
REMARK   37  A    between atoms: _96  and  _99
REMARK   38  A    between atoms: _99  and  _100
REMARK   39  A    between atoms: _105  and  _107
REMARK   40  A    between atoms: _107  and  _108
REMARK   41  A    between atoms: _107  and  _110
REMARK   42  A    between atoms: _110  and  _111
REMARK   43  A    between atoms: _121  and  _123
REMARK   44  A    between atoms: _123  and  _124
REMARK   45  A    between atoms: _123  and  _126
REMARK   46  A    between atoms: _126  and  _127
REMARK   47  A    between atoms: _137  and  _139
REMARK   48  A    between atoms: _139  and  _140
REMARK   49  A    between atoms: _139  and  _142
REMARK   50  A    between atoms: _142  and  _143
REMARK   51  A    between atoms: _143  and  _144
REMARK   52  A    between atoms: _146  and  _148
REMARK   53  A    between atoms: _148  and  _149
REMARK   54  A    between atoms: _148  and  _151
REMARK   55  A    between atoms: _151  and  _152
REMARK   56  A    between atoms: _157  and  _159
REMARK   57  A    between atoms: _159  and  _160
REMARK   58  A    between atoms: _159  and  _162
REMARK   59  A    between atoms: _162  and  _163
REMARK   60  A    between atoms: _173  and  _175
REMARK   61  A    between atoms: _175  and  _176
REMARK   62  A    between atoms: _178  and  _180
REMARK   63  A    between atoms: _180  and  _181
REMARK   64  A    between atoms: _184  and  _186
REMARK   65  A    between atoms: _186  and  _187
REMARK   66  A    between atoms: _186  and  _189
REMARK   67  A    between atoms: _189  and  _190
REMARK   68  A    between atoms: _193  and  _195
REMARK   69  A    between atoms: _195  and  _196
REMARK   70  A    between atoms: _195  and  _198
REMARK   71  A    between atoms: _198  and  _199
REMARK   72  A    between atoms: _204  and  _205
REMARK   73  A    between atoms: _207  and  _209
REMARK   74  A    between atoms: _209  and  _210
REMARK   75  A    between atoms: _209  and  _212
REMARK   76  A    between atoms: _212  and  _213
REMARK   77  A    between atoms: _218  and  _220
REMARK   78  A    between atoms: _220  and  _221
REMARK   79  A    between atoms: _224  and  _226
REMARK   80  A    between atoms: _226  and  _227
REMARK   81  A    between atoms: _226  and  _229
REMARK   82  A    between atoms: _229  and  _230
REMARK   83  A    between atoms: _233  and  _235
REMARK   84  A    between atoms: _235  and  _236
REMARK   85  A    between atoms: _235  and  _238
REMARK   86  A    between atoms: _238  and  _239
REMARK   87  A    between atoms: _245  and  _247
REMARK   88  A    between atoms: _247  and  _248
REMARK   89  A    between atoms: _247  and  _250
REMARK   90  A    between atoms: _250  and  _251
REMARK   91  A    between atoms: _256  and  _257
REMARK   92  A    between atoms: _259  and  _261
REMARK   93  A    between atoms: _261  and  _262
REMARK   94  A    between atoms: _264  and  _266
REMARK   95  A    between atoms: _266  and  _267
REMARK   96  A    between atoms: _269  and  _271
REMARK   97  A    between atoms: _271  and  _272
REMARK   98  A    between atoms: _271  and  _274
REMARK   99  A    between atoms: _274  and  _275
REMARK  100  A    between atoms: _280  and  _282
REMARK  101  A    between atoms: _282  and  _283
REMARK  102  A    between atoms: _285  and  _287
REMARK  103  A    between atoms: _287  and  _288
REMARK  104  A    between atoms: _287  and  _290
REMARK  105  A    between atoms: _290  and  _291
REMARK  106  A    between atoms: _296  and  _297
REMARK  107  A    between atoms: _299  and  _301
REMARK  108  A    between atoms: _301  and  _302
REMARK  109  A    between atoms: _301  and  _304
REMARK  110  A    between atoms: _304  and  _305
REMARK  111  A    between atoms: _310  and  _311
REMARK  112  A    between atoms: _313  and  _315
REMARK  113  A    between atoms: _315  and  _316
REMARK                            x       y       z     vdW  Elec       q    Type
REMARK                         _______ _______ _______ _____ _____    ______ ____
ROOT
ATOM      1  O   HOH     1      13.639 -13.248  59.147  0.00  0.00    +0.000 OA
ENDROOT
TORSDOF 0
REMARK  Name = ../refined-set-2016/1mfa/1mfa_pocket.pdb
REMARK  113 active torsions:
REMARK  status: ('A' for Active; 'I' for Inactive)
REMARK    1  A    between atoms: _1  and  _3
REMARK    2  A    between atoms: _3  and  _4
REMARK    3  A    between atoms: _6  and  _8
REMARK    4  A    between atoms: _8  and  _9
REMARK    5  A    between atoms: _8  and  _11
REMARK    6  A    between atoms: _11  and  _12
REMARK    7  A    between atoms: _17  and  _19
REMARK    8  A    between atoms: _19  and  _20
REMARK    9  A    between atoms: _19  and  _22
REMARK   10  A    between atoms: _22  and  _23
REMARK   11  A    between atoms: _28  and  _30
REMARK   12  A    between atoms: _30  and  _31
REMARK   13  A    between atoms: _30  and  _33
REMARK   14  A    between atoms: _33  and  _34
REMARK   15  A    between atoms: _39  and  _41
REMARK   16  A    between atoms: _41  and  _42
REMARK   17  A    between atoms: _41  and  _44
REMARK   18  A    between atoms: _44  and  _45
REMARK   19  A    between atoms: _48  and  _50
REMARK   20  A    between atoms: _50  and  _51
REMARK   21  A    between atoms: _50  and  _53
REMARK   22  A    between atoms: _53  and  _54
REMARK   23  A    between atoms: _64  and  _66
REMARK   24  A    between atoms: _66  and  _67
REMARK   25  A    between atoms: _66  and  _69
REMARK   26  A    between atoms: _69  and  _70
REMARK   27  A    between atoms: _72  and  _74
REMARK   28  A    between atoms: _74  and  _75
REMARK   29  A    between atoms: _74  and  _77
REMARK   30  A    between atoms: _77  and  _78
REMARK   31  A    between atoms: _83  and  _85
REMARK   32  A    between atoms: _85  and  _86
REMARK   33  A    between atoms: _85  and  _88
REMARK   34  A    between atoms: _88  and  _89
REMARK   35  A    between atoms: _94  and  _96
REMARK   36  A    between atoms: _96  and  _97
REMARK   37  A    between atoms: _96  and  _99
REMARK   38  A    between atoms: _99  and  _100
REMARK   39  A    between atoms: _105  and  _107
REMARK   40  A    between atoms: _107  and  _108
REMARK   41  A    between atoms: _107  and  _110
REMARK   42  A    between atoms: _110  and  _111
REMARK   43  A    between atoms: _121  and  _123
REMARK   44  A    between atoms: _123  and  _124
REMARK   45  A    between atoms: _123  and  _126
REMARK   46  A    between atoms: _126  and  _127
REMARK   47  A    between atoms: _137  and  _139
REMARK   48  A    between atoms: _139  and  _140
REMARK   49  A    between atoms: _139  and  _142
REMARK   50  A    between atoms: _142  and  _143
REMARK   51  A    between atoms: _143  and  _144
REMARK   52  A    between atoms: _146  and  _148
REMARK   53  A    between atoms: _148  and  _149
REMARK   54  A    between atoms: _148  and  _151
REMARK   55  A    between atoms: _151  and  _152
REMARK   56  A    between atoms: _157  and  _159
REMARK   57  A    between atoms: _159  and  _160
REMARK   58  A    between atoms: _159  and  _162
REMARK   59  A    between atoms: _162  and  _163
REMARK   60  A    between atoms: _173  and  _175
REMARK   61  A    between atoms: _175  and  _176
REMARK   62  A    between atoms: _178  and  _180
REMARK   63  A    between atoms: _180  and  _181
REMARK   64  A    between atoms: _184  and  _186
REMARK   65  A    between atoms: _186  and  _187
REMARK   66  A    between atoms: _186  and  _189
REMARK   67  A    between atoms: _189  and  _190
REMARK   68  A    between atoms: _193  and  _195
REMARK   69  A    between atoms: _195  and  _196
REMARK   70  A    between atoms: _195  and  _198
REMARK   71  A    between atoms: _198  and  _199
REMARK   72  A    between atoms: _204  and  _205
REMARK   73  A    between atoms: _207  and  _209
REMARK   74  A    between atoms: _209  and  _210
REMARK   75  A    between atoms: _209  and  _212
REMARK   76  A    between atoms: _212  and  _213
REMARK   77  A    between atoms: _218  and  _220
REMARK   78  A    between atoms: _220  and  _221
REMARK   79  A    between atoms: _224  and  _226
REMARK   80  A    between atoms: _226  and  _227
REMARK   81  A    between atoms: _226  and  _229
REMARK   82  A    between atoms: _229  and  _230
REMARK   83  A    between atoms: _233  and  _235
REMARK   84  A    between atoms: _235  and  _236
REMARK   85  A    between atoms: _235  and  _238
REMARK   86  A    between atoms: _238  and  _239
REMARK   87  A    between atoms: _245  and  _247
REMARK   88  A    between atoms: _247  and  _248
REMARK   89  A    between atoms: _247  and  _250
REMARK   90  A    between atoms: _250  and  _251
REMARK   91  A    between atoms: _256  and  _257
REMARK   92  A    between atoms: _259  and  _261
REMARK   93  A    between atoms: _261  and  _262
REMARK   94  A    between atoms: _264  and  _266
REMARK   95  A    between atoms: _266  and  _267
REMARK   96  A    between atoms: _269  and  _271
REMARK   97  A    between atoms: _271  and  _272
REMARK   98  A    between atoms: _271  and  _274
REMARK   99  A    between atoms: _274  and  _275
REMARK  100  A    between atoms: _280  and  _282
REMARK  101  A    between atoms: _282  and  _283
REMARK  102  A    between atoms: _285  and  _287
REMARK  103  A    between atoms: _287  and  _288
REMARK  104  A    between atoms: _287  and  _290
REMARK  105  A    between atoms: _290  and  _291
REMARK  106  A    between atoms: _296  and  _297
REMARK  107  A    between atoms: _299  and  _301
REMARK  108  A    between atoms: _301  and  _302
REMARK  109  A    between atoms: _301  and  _304
REMARK  110  A    between atoms: _304  and  _305
REMARK  111  A    between atoms: _310  and  _311
REMARK  112  A    between atoms: _313  and  _315
REMARK  113  A    between atoms: _315  and  _316
REMARK                            x       y       z     vdW  Elec       q    Type
REMARK                         _______ _______ _______ _____ _____    ______ ____
ROOT
ATOM      1  O   HOH     1      14.929  -9.540  64.785  0.00  0.00    +0.000 OA
ENDROOT
TORSDOF 0
REMARK  Name = ../refined-set-2016/1mfa/1mfa_pocket.pdb
REMARK  113 active torsions:
REMARK  status: ('A' for Active; 'I' for Inactive)
REMARK    1  A    between atoms: _1  and  _3
REMARK    2  A    between atoms: _3  and  _4
REMARK    3  A    between atoms: _6  and  _8
REMARK    4  A    between atoms: _8  and  _9
REMARK    5  A    between atoms: _8  and  _11
REMARK    6  A    between atoms: _11  and  _12
REMARK    7  A    between atoms: _17  and  _19
REMARK    8  A    between atoms: _19  and  _20
REMARK    9  A    between atoms: _19  and  _22
REMARK   10  A    between atoms: _22  and  _23
REMARK   11  A    between atoms: _28  and  _30
REMARK   12  A    between atoms: _30  and  _31
REMARK   13  A    between atoms: _30  and  _33
REMARK   14  A    between atoms: _33  and  _34
REMARK   15  A    between atoms: _39  and  _41
REMARK   16  A    between atoms: _41  and  _42
REMARK   17  A    between atoms: _41  and  _44
REMARK   18  A    between atoms: _44  and  _45
REMARK   19  A    between atoms: _48  and  _50
REMARK   20  A    between atoms: _50  and  _51
REMARK   21  A    between atoms: _50  and  _53
REMARK   22  A    between atoms: _53  and  _54
REMARK   23  A    between atoms: _64  and  _66
REMARK   24  A    between atoms: _66  and  _67
REMARK   25  A    between atoms: _66  and  _69
REMARK   26  A    between atoms: _69  and  _70
REMARK   27  A    between atoms: _72  and  _74
REMARK   28  A    between atoms: _74  and  _75
REMARK   29  A    between atoms: _74  and  _77
REMARK   30  A    between atoms: _77  and  _78
REMARK   31  A    between atoms: _83  and  _85
REMARK   32  A    between atoms: _85  and  _86
REMARK   33  A    between atoms: _85  and  _88
REMARK   34  A    between atoms: _88  and  _89
REMARK   35  A    between atoms: _94  and  _96
REMARK   36  A    between atoms: _96  and  _97
REMARK   37  A    between atoms: _96  and  _99
REMARK   38  A    between atoms: _99  and  _100
REMARK   39  A    between atoms: _105  and  _107
REMARK   40  A    between atoms: _107  and  _108
REMARK   41  A    between atoms: _107  and  _110
REMARK   42  A    between atoms: _110  and  _111
REMARK   43  A    between atoms: _121  and  _123
REMARK   44  A    between atoms: _123  and  _124
REMARK   45  A    between atoms: _123  and  _126
REMARK   46  A    between atoms: _126  and  _127
REMARK   47  A    between atoms: _137  and  _139
REMARK   48  A    between atoms: _139  and  _140
REMARK   49  A    between atoms: _139  and  _142
REMARK   50  A    between atoms: _142  and  _143
REMARK   51  A    between atoms: _143  and  _144
REMARK   52  A    between atoms: _146  and  _148
REMARK   53  A    between atoms: _148  and  _149
REMARK   54  A    between atoms: _148  and  _151
REMARK   55  A    between atoms: _151  and  _152
REMARK   56  A    between atoms: _157  and  _159
REMARK   57  A    between atoms: _159  and  _160
REMARK   58  A    between atoms: _159  and  _162
REMARK   59  A    between atoms: _162  and  _163
REMARK   60  A    between atoms: _173  and  _175
REMARK   61  A    between atoms: _175  and  _176
REMARK   62  A    between atoms: _178  and  _180
REMARK   63  A    between atoms: _180  and  _181
REMARK   64  A    between atoms: _184  and  _186
REMARK   65  A    between atoms: _186  and  _187
REMARK   66  A    between atoms: _186  and  _189
REMARK   67  A    between atoms: _189  and  _190
REMARK   68  A    between atoms: _193  and  _195
REMARK   69  A    between atoms: _195  and  _196
REMARK   70  A    between atoms: _195  and  _198
REMARK   71  A    between atoms: _198  and  _199
REMARK   72  A    between atoms: _204  and  _205
REMARK   73  A    between atoms: _207  and  _209
REMARK   74  A    between atoms: _209  and  _210
REMARK   75  A    between atoms: _209  and  _212
REMARK   76  A    between atoms: _212  and  _213
REMARK   77  A    between atoms: _218  and  _220
REMARK   78  A    between atoms: _220  and  _221
REMARK   79  A    between atoms: _224  and  _226
REMARK   80  A    between atoms: _226  and  _227
REMARK   81  A    between atoms: _226  and  _229
REMARK   82  A    between atoms: _229  and  _230
REMARK   83  A    between atoms: _233  and  _235
REMARK   84  A    between atoms: _235  and  _236
REMARK   85  A    between atoms: _235  and  _238
REMARK   86  A    between atoms: _238  and  _239
REMARK   87  A    between atoms: _245  and  _247
REMARK   88  A    between atoms: _247  and  _248
REMARK   89  A    between atoms: _247  and  _250
REMARK   90  A    between atoms: _250  and  _251
REMARK   91  A    between atoms: _256  and  _257
REMARK   92  A    between atoms: _259  and  _261
REMARK   93  A    between atoms: _261  and  _262
REMARK   94  A    between atoms: _264  and  _266
REMARK   95  A    between atoms: _266  and  _267
REMARK   96  A    between atoms: _269  and  _271
REMARK   97  A    between atoms: _271  and  _272
REMARK   98  A    between atoms: _271  and  _274
REMARK   99  A    between atoms: _274  and  _275
REMARK  100  A    between atoms: _280  and  _282
REMARK  101  A    between atoms: _282  and  _283
REMARK  102  A    between atoms: _285  and  _287
REMARK  103  A    between atoms: _287  and  _288
REMARK  104  A    between atoms: _287  and  _290
REMARK  105  A    between atoms: _290  and  _291
REMARK  106  A    between atoms: _296  and  _297
REMARK  107  A    between atoms: _299  and  _301
REMARK  108  A    between atoms: _301  and  _302
REMARK  109  A    between atoms: _301  and  _304
REMARK  110  A    between atoms: _304  and  _305
REMARK  111  A    between atoms: _310  and  _311
REMARK  112  A    between atoms: _313  and  _315
REMARK  113  A    between atoms: _315  and  _316
REMARK                            x       y       z     vdW  Elec       q    Type
REMARK                         _______ _______ _______ _____ _____    ______ ____
ROOT
ATOM      1  O   HOH     1      14.541 -11.957  66.355  0.00  0.00    +0.000 OA
ENDROOT
TORSDOF 0
REMARK  Name = ../refined-set-2016/1mfa/1mfa_pocket.pdb
REMARK  113 active torsions:
REMARK  status: ('A' for Active; 'I' for Inactive)
REMARK    1  A    between atoms: _1  and  _3
REMARK    2  A    between atoms: _3  and  _4
REMARK    3  A    between atoms: _6  and  _8
REMARK    4  A    between atoms: _8  and  _9
REMARK    5  A    between atoms: _8  and  _11
REMARK    6  A    between atoms: _11  and  _12
REMARK    7  A    between atoms: _17  and  _19
REMARK    8  A    between atoms: _19  and  _20
REMARK    9  A    between atoms: _19  and  _22
REMARK   10  A    between atoms: _22  and  _23
REMARK   11  A    between atoms: _28  and  _30
REMARK   12  A    between atoms: _30  and  _31
REMARK   13  A    between atoms: _30  and  _33
REMARK   14  A    between atoms: _33  and  _34
REMARK   15  A    between atoms: _39  and  _41
REMARK   16  A    between atoms: _41  and  _42
REMARK   17  A    between atoms: _41  and  _44
REMARK   18  A    between atoms: _44  and  _45
REMARK   19  A    between atoms: _48  and  _50
REMARK   20  A    between atoms: _50  and  _51
REMARK   21  A    between atoms: _50  and  _53
REMARK   22  A    between atoms: _53  and  _54
REMARK   23  A    between atoms: _64  and  _66
REMARK   24  A    between atoms: _66  and  _67
REMARK   25  A    between atoms: _66  and  _69
REMARK   26  A    between atoms: _69  and  _70
REMARK   27  A    between atoms: _72  and  _74
REMARK   28  A    between atoms: _74  and  _75
REMARK   29  A    between atoms: _74  and  _77
REMARK   30  A    between atoms: _77  and  _78
REMARK   31  A    between atoms: _83  and  _85
REMARK   32  A    between atoms: _85  and  _86
REMARK   33  A    between atoms: _85  and  _88
REMARK   34  A    between atoms: _88  and  _89
REMARK   35  A    between atoms: _94  and  _96
REMARK   36  A    between atoms: _96  and  _97
REMARK   37  A    between atoms: _96  and  _99
REMARK   38  A    between atoms: _99  and  _100
REMARK   39  A    between atoms: _105  and  _107
REMARK   40  A    between atoms: _107  and  _108
REMARK   41  A    between atoms: _107  and  _110
REMARK   42  A    between atoms: _110  and  _111
REMARK   43  A    between atoms: _121  and  _123
REMARK   44  A    between atoms: _123  and  _124
REMARK   45  A    between atoms: _123  and  _126
REMARK   46  A    between atoms: _126  and  _127
REMARK   47  A    between atoms: _137  and  _139
REMARK   48  A    between atoms: _139  and  _140
REMARK   49  A    between atoms: _139  and  _142
REMARK   50  A    between atoms: _142  and  _143
REMARK   51  A    between atoms: _143  and  _144
REMARK   52  A    between atoms: _146  and  _148
REMARK   53  A    between atoms: _148  and  _149
REMARK   54  A    between atoms: _148  and  _151
REMARK   55  A    between atoms: _151  and  _152
REMARK   56  A    between atoms: _157  and  _159
REMARK   57  A    between atoms: _159  and  _160
REMARK   58  A    between atoms: _159  and  _162
REMARK   59  A    between atoms: _162  and  _163
REMARK   60  A    between atoms: _173  and  _175
REMARK   61  A    between atoms: _175  and  _176
REMARK   62  A    between atoms: _178  and  _180
REMARK   63  A    between atoms: _180  and  _181
REMARK   64  A    between atoms: _184  and  _186
REMARK   65  A    between atoms: _186  and  _187
REMARK   66  A    between atoms: _186  and  _189
REMARK   67  A    between atoms: _189  and  _190
REMARK   68  A    between atoms: _193  and  _195
REMARK   69  A    between atoms: _195  and  _196
REMARK   70  A    between atoms: _195  and  _198
REMARK   71  A    between atoms: _198  and  _199
REMARK   72  A    between atoms: _204  and  _205
REMARK   73  A    between atoms: _207  and  _209
REMARK   74  A    between atoms: _209  and  _210
REMARK   75  A    between atoms: _209  and  _212
REMARK   76  A    between atoms: _212  and  _213
REMARK   77  A    between atoms: _218  and  _220
REMARK   78  A    between atoms: _220  and  _221
REMARK   79  A    between atoms: _224  and  _226
REMARK   80  A    between atoms: _226  and  _227
REMARK   81  A    between atoms: _226  and  _229
REMARK   82  A    between atoms: _229  and  _230
REMARK   83  A    between atoms: _233  and  _235
REMARK   84  A    between atoms: _235  and  _236
REMARK   85  A    between atoms: _235  and  _238
REMARK   86  A    between atoms: _238  and  _239
REMARK   87  A    between atoms: _245  and  _247
REMARK   88  A    between atoms: _247  and  _248
REMARK   89  A    between atoms: _247  and  _250
REMARK   90  A    between atoms: _250  and  _251
REMARK   91  A    between atoms: _256  and  _257
REMARK   92  A    between atoms: _259  and  _261
REMARK   93  A    between atoms: _261  and  _262
REMARK   94  A    between atoms: _264  and  _266
REMARK   95  A    between atoms: _266  and  _267
REMARK   96  A    between atoms: _269  and  _271
REMARK   97  A    between atoms: _271  and  _272
REMARK   98  A    between atoms: _271  and  _274
REMARK   99  A    between atoms: _274  and  _275
REMARK  100  A    between atoms: _280  and  _282
REMARK  101  A    between atoms: _282  and  _283
REMARK  102  A    between atoms: _285  and  _287
REMARK  103  A    between atoms: _287  and  _288
REMARK  104  A    between atoms: _287  and  _290
REMARK  105  A    between atoms: _290  and  _291
REMARK  106  A    between atoms: _296  and  _297
REMARK  107  A    between atoms: _299  and  _301
REMARK  108  A    between atoms: _301  and  _302
REMARK  109  A    between atoms: _301  and  _304
REMARK  110  A    between atoms: _304  and  _305
REMARK  111  A    between atoms: _310  and  _311
REMARK  112  A    between atoms: _313  and  _315
REMARK  113  A    between atoms: _315  and  _316
REMARK                            x       y       z     vdW  Elec       q    Type
REMARK                         _______ _______ _______ _____ _____    ______ ____
ROOT
ATOM      1  O   HOH     1      15.142  -7.779  67.552  0.00  0.00    +0.000 OA
ENDROOT
TORSDOF 0
REMARK  Name = ../refined-set-2016/1mfa/1mfa_pocket.pdb
REMARK  113 active torsions:
REMARK  status: ('A' for Active; 'I' for Inactive)
REMARK    1  A    between atoms: _1  and  _3
REMARK    2  A    between atoms: _3  and  _4
REMARK    3  A    between atoms: _6  and  _8
REMARK    4  A    between atoms: _8  and  _9
REMARK    5  A    between atoms: _8  and  _11
REMARK    6  A    between atoms: _11  and  _12
REMARK    7  A    between atoms: _17  and  _19
REMARK    8  A    between atoms: _19  and  _20
REMARK    9  A    between atoms: _19  and  _22
REMARK   10  A    between atoms: _22  and  _23
REMARK   11  A    between atoms: _28  and  _30
REMARK   12  A    between atoms: _30  and  _31
REMARK   13  A    between atoms: _30  and  _33
REMARK   14  A    between atoms: _33  and  _34
REMARK   15  A    between atoms: _39  and  _41
REMARK   16  A    between atoms: _41  and  _42
REMARK   17  A    between atoms: _41  and  _44
REMARK   18  A    between atoms: _44  and  _45
REMARK   19  A    between atoms: _48  and  _50
REMARK   20  A    between atoms: _50  and  _51
REMARK   21  A    between atoms: _50  and  _53
REMARK   22  A    between atoms: _53  and  _54
REMARK   23  A    between atoms: _64  and  _66
REMARK   24  A    between atoms: _66  and  _67
REMARK   25  A    between atoms: _66  and  _69
REMARK   26  A    between atoms: _69  and  _70
REMARK   27  A    between atoms: _72  and  _74
REMARK   28  A    between atoms: _74  and  _75
REMARK   29  A    between atoms: _74  and  _77
REMARK   30  A    between atoms: _77  and  _78
REMARK   31  A    between atoms: _83  and  _85
REMARK   32  A    between atoms: _85  and  _86
REMARK   33  A    between atoms: _85  and  _88
REMARK   34  A    between atoms: _88  and  _89
REMARK   35  A    between atoms: _94  and  _96
REMARK   36  A    between atoms: _96  and  _97
REMARK   37  A    between atoms: _96  and  _99
REMARK   38  A    between atoms: _99  and  _100
REMARK   39  A    between atoms: _105  and  _107
REMARK   40  A    between atoms: _107  and  _108
REMARK   41  A    between atoms: _107  and  _110
REMARK   42  A    between atoms: _110  and  _111
REMARK   43  A    between atoms: _121  and  _123
REMARK   44  A    between atoms: _123  and  _124
REMARK   45  A    between atoms: _123  and  _126
REMARK   46  A    between atoms: _126  and  _127
REMARK   47  A    between atoms: _137  and  _139
REMARK   48  A    between atoms: _139  and  _140
REMARK   49  A    between atoms: _139  and  _142
REMARK   50  A    between atoms: _142  and  _143
REMARK   51  A    between atoms: _143  and  _144
REMARK   52  A    between atoms: _146  and  _148
REMARK   53  A    between atoms: _148  and  _149
REMARK   54  A    between atoms: _148  and  _151
REMARK   55  A    between atoms: _151  and  _152
REMARK   56  A    between atoms: _157  and  _159
REMARK   57  A    between atoms: _159  and  _160
REMARK   58  A    between atoms: _159  and  _162
REMARK   59  A    between atoms: _162  and  _163
REMARK   60  A    between atoms: _173  and  _175
REMARK   61  A    between atoms: _175  and  _176
REMARK   62  A    between atoms: _178  and  _180
REMARK   63  A    between atoms: _180  and  _181
REMARK   64  A    between atoms: _184  and  _186
REMARK   65  A    between atoms: _186  and  _187
REMARK   66  A    between atoms: _186  and  _189
REMARK   67  A    between atoms: _189  and  _190
REMARK   68  A    between atoms: _193  and  _195
REMARK   69  A    between atoms: _195  and  _196
REMARK   70  A    between atoms: _195  and  _198
REMARK   71  A    between atoms: _198  and  _199
REMARK   72  A    between atoms: _204  and  _205
REMARK   73  A    between atoms: _207  and  _209
REMARK   74  A    between atoms: _209  and  _210
REMARK   75  A    between atoms: _209  and  _212
REMARK   76  A    between atoms: _212  and  _213
REMARK   77  A    between atoms: _218  and  _220
REMARK   78  A    between atoms: _220  and  _221
REMARK   79  A    between atoms: _224  and  _226
REMARK   80  A    between atoms: _226  and  _227
REMARK   81  A    between atoms: _226  and  _229
REMARK   82  A    between atoms: _229  and  _230
REMARK   83  A    between atoms: _233  and  _235
REMARK   84  A    between atoms: _235  and  _236
REMARK   85  A    between atoms: _235  and  _238
REMARK   86  A    between atoms: _238  and  _239
REMARK   87  A    between atoms: _245  and  _247
REMARK   88  A    between atoms: _247  and  _248
REMARK   89  A    between atoms: _247  and  _250
REMARK   90  A    between atoms: _250  and  _251
REMARK   91  A    between atoms: _256  and  _257
REMARK   92  A    between atoms: _259  and  _261
REMARK   93  A    between atoms: _261  and  _262
REMARK   94  A    between atoms: _264  and  _266
REMARK   95  A    between atoms: _266  and  _267
REMARK   96  A    between atoms: _269  and  _271
REMARK   97  A    between atoms: _271  and  _272
REMARK   98  A    between atoms: _271  and  _274
REMARK   99  A    between atoms: _274  and  _275
REMARK  100  A    between atoms: _280  and  _282
REMARK  101  A    between atoms: _282  and  _283
REMARK  102  A    between atoms: _285  and  _287
REMARK  103  A    between atoms: _287  and  _288
REMARK  104  A    between atoms: _287  and  _290
REMARK  105  A    between atoms: _290  and  _291
REMARK  106  A    between atoms: _296  and  _297
REMARK  107  A    between atoms: _299  and  _301
REMARK  108  A    between atoms: _301  and  _302
REMARK  109  A    between atoms: _301  and  _304
REMARK  110  A    between atoms: _304  and  _305
REMARK  111  A    between atoms: _310  and  _311
REMARK  112  A    between atoms: _313  and  _315
REMARK  113  A    between atoms: _315  and  _316
REMARK                            x       y       z     vdW  Elec       q    Type
REMARK                         _______ _______ _______ _____ _____    ______ ____
ROOT
ATOM      1  O   HOH     1      20.919 -13.864  59.335  0.00  0.00    +0.000 OA
ENDROOT
TORSDOF 0
REMARK  Name = ../refined-set-2016/1mfa/1mfa_pocket.pdb
REMARK  113 active torsions:
REMARK  status: ('A' for Active; 'I' for Inactive)
REMARK    1  A    between atoms: _1  and  _3
REMARK    2  A    between atoms: _3  and  _4
REMARK    3  A    between atoms: _6  and  _8
REMARK    4  A    between atoms: _8  and  _9
REMARK    5  A    between atoms: _8  and  _11
REMARK    6  A    between atoms: _11  and  _12
REMARK    7  A    between atoms: _17  and  _19
REMARK    8  A    between atoms: _19  and  _20
REMARK    9  A    between atoms: _19  and  _22
REMARK   10  A    between atoms: _22  and  _23
REMARK   11  A    between atoms: _28  and  _30
REMARK   12  A    between atoms: _30  and  _31
REMARK   13  A    between atoms: _30  and  _33
REMARK   14  A    between atoms: _33  and  _34
REMARK   15  A    between atoms: _39  and  _41
REMARK   16  A    between atoms: _41  and  _42
REMARK   17  A    between atoms: _41  and  _44
REMARK   18  A    between atoms: _44  and  _45
REMARK   19  A    between atoms: _48  and  _50
REMARK   20  A    between atoms: _50  and  _51
REMARK   21  A    between atoms: _50  and  _53
REMARK   22  A    between atoms: _53  and  _54
REMARK   23  A    between atoms: _64  and  _66
REMARK   24  A    between atoms: _66  and  _67
REMARK   25  A    between atoms: _66  and  _69
REMARK   26  A    between atoms: _69  and  _70
REMARK   27  A    between atoms: _72  and  _74
REMARK   28  A    between atoms: _74  and  _75
REMARK   29  A    between atoms: _74  and  _77
REMARK   30  A    between atoms: _77  and  _78
REMARK   31  A    between atoms: _83  and  _85
REMARK   32  A    between atoms: _85  and  _86
REMARK   33  A    between atoms: _85  and  _88
REMARK   34  A    between atoms: _88  and  _89
REMARK   35  A    between atoms: _94  and  _96
REMARK   36  A    between atoms: _96  and  _97
REMARK   37  A    between atoms: _96  and  _99
REMARK   38  A    between atoms: _99  and  _100
REMARK   39  A    between atoms: _105  and  _107
REMARK   40  A    between atoms: _107  and  _108
REMARK   41  A    between atoms: _107  and  _110
REMARK   42  A    between atoms: _110  and  _111
REMARK   43  A    between atoms: _121  and  _123
REMARK   44  A    between atoms: _123  and  _124
REMARK   45  A    between atoms: _123  and  _126
REMARK   46  A    between atoms: _126  and  _127
REMARK   47  A    between atoms: _137  and  _139
REMARK   48  A    between atoms: _139  and  _140
REMARK   49  A    between atoms: _139  and  _142
REMARK   50  A    between atoms: _142  and  _143
REMARK   51  A    between atoms: _143  and  _144
REMARK   52  A    between atoms: _146  and  _148
REMARK   53  A    between atoms: _148  and  _149
REMARK   54  A    between atoms: _148  and  _151
REMARK   55  A    between atoms: _151  and  _152
REMARK   56  A    between atoms: _157  and  _159
REMARK   57  A    between atoms: _159  and  _160
REMARK   58  A    between atoms: _159  and  _162
REMARK   59  A    between atoms: _162  and  _163
REMARK   60  A    between atoms: _173  and  _175
REMARK   61  A    between atoms: _175  and  _176
REMARK   62  A    between atoms: _178  and  _180
REMARK   63  A    between atoms: _180  and  _181
REMARK   64  A    between atoms: _184  and  _186
REMARK   65  A    between atoms: _186  and  _187
REMARK   66  A    between atoms: _186  and  _189
REMARK   67  A    between atoms: _189  and  _190
REMARK   68  A    between atoms: _193  and  _195
REMARK   69  A    between atoms: _195  and  _196
REMARK   70  A    between atoms: _195  and  _198
REMARK   71  A    between atoms: _198  and  _199
REMARK   72  A    between atoms: _204  and  _205
REMARK   73  A    between atoms: _207  and  _209
REMARK   74  A    between atoms: _209  and  _210
REMARK   75  A    between atoms: _209  and  _212
REMARK   76  A    between atoms: _212  and  _213
REMARK   77  A    between atoms: _218  and  _220
REMARK   78  A    between atoms: _220  and  _221
REMARK   79  A    between atoms: _224  and  _226
REMARK   80  A    between atoms: _226  and  _227
REMARK   81  A    between atoms: _226  and  _229
REMARK   82  A    between atoms: _229  and  _230
REMARK   83  A    between atoms: _233  and  _235
REMARK   84  A    between atoms: _235  and  _236
REMARK   85  A    between atoms: _235  and  _238
REMARK   86  A    between atoms: _238  and  _239
REMARK   87  A    between atoms: _245  and  _247
REMARK   88  A    between atoms: _247  and  _248
REMARK   89  A    between atoms: _247  and  _250
REMARK   90  A    between atoms: _250  and  _251
REMARK   91  A    between atoms: _256  and  _257
REMARK   92  A    between atoms: _259  and  _261
REMARK   93  A    between atoms: _261  and  _262
REMARK   94  A    between atoms: _264  and  _266
REMARK   95  A    between atoms: _266  and  _267
REMARK   96  A    between atoms: _269  and  _271
REMARK   97  A    between atoms: _271  and  _272
REMARK   98  A    between atoms: _271  and  _274
REMARK   99  A    between atoms: _274  and  _275
REMARK  100  A    between atoms: _280  and  _282
REMARK  101  A    between atoms: _282  and  _283
REMARK  102  A    between atoms: _285  and  _287
REMARK  103  A    between atoms: _287  and  _288
REMARK  104  A    between atoms: _287  and  _290
REMARK  105  A    between atoms: _290  and  _291
REMARK  106  A    between atoms: _296  and  _297
REMARK  107  A    between atoms: _299  and  _301
REMARK  108  A    between atoms: _301  and  _302
REMARK  109  A    between atoms: _301  and  _304
REMARK  110  A    between atoms: _304  and  _305
REMARK  111  A    between atoms: _310  and  _311
REMARK  112  A    between atoms: _313  and  _315
REMARK  113  A    between atoms: _315  and  _316
REMARK                            x       y       z     vdW  Elec       q    Type
REMARK                         _______ _______ _______ _____ _____    ______ ____
ROOT
ATOM      1  O   HOH     1       6.218  -1.655  62.363  0.00  0.00    +0.000 OA
ENDROOT
TORSDOF 0
REMARK  Name = ../refined-set-2016/1mfa/1mfa_pocket.pdb
REMARK  113 active torsions:
REMARK  status: ('A' for Active; 'I' for Inactive)
REMARK    1  A    between atoms: _1  and  _3
REMARK    2  A    between atoms: _3  and  _4
REMARK    3  A    between atoms: _6  and  _8
REMARK    4  A    between atoms: _8  and  _9
REMARK    5  A    between atoms: _8  and  _11
REMARK    6  A    between atoms: _11  and  _12
REMARK    7  A    between atoms: _17  and  _19
REMARK    8  A    between atoms: _19  and  _20
REMARK    9  A    between atoms: _19  and  _22
REMARK   10  A    between atoms: _22  and  _23
REMARK   11  A    between atoms: _28  and  _30
REMARK   12  A    between atoms: _30  and  _31
REMARK   13  A    between atoms: _30  and  _33
REMARK   14  A    between atoms: _33  and  _34
REMARK   15  A    between atoms: _39  and  _41
REMARK   16  A    between atoms: _41  and  _42
REMARK   17  A    between atoms: _41  and  _44
REMARK   18  A    between atoms: _44  and  _45
REMARK   19  A    between atoms: _48  and  _50
REMARK   20  A    between atoms: _50  and  _51
REMARK   21  A    between atoms: _50  and  _53
REMARK   22  A    between atoms: _53  and  _54
REMARK   23  A    between atoms: _64  and  _66
REMARK   24  A    between atoms: _66  and  _67
REMARK   25  A    between atoms: _66  and  _69
REMARK   26  A    between atoms: _69  and  _70
REMARK   27  A    between atoms: _72  and  _74
REMARK   28  A    between atoms: _74  and  _75
REMARK   29  A    between atoms: _74  and  _77
REMARK   30  A    between atoms: _77  and  _78
REMARK   31  A    between atoms: _83  and  _85
REMARK   32  A    between atoms: _85  and  _86
REMARK   33  A    between atoms: _85  and  _88
REMARK   34  A    between atoms: _88  and  _89
REMARK   35  A    between atoms: _94  and  _96
REMARK   36  A    between atoms: _96  and  _97
REMARK   37  A    between atoms: _96  and  _99
REMARK   38  A    between atoms: _99  and  _100
REMARK   39  A    between atoms: _105  and  _107
REMARK   40  A    between atoms: _107  and  _108
REMARK   41  A    between atoms: _107  and  _110
REMARK   42  A    between atoms: _110  and  _111
REMARK   43  A    between atoms: _121  and  _123
REMARK   44  A    between atoms: _123  and  _124
REMARK   45  A    between atoms: _123  and  _126
REMARK   46  A    between atoms: _126  and  _127
REMARK   47  A    between atoms: _137  and  _139
REMARK   48  A    between atoms: _139  and  _140
REMARK   49  A    between atoms: _139  and  _142
REMARK   50  A    between atoms: _142  and  _143
REMARK   51  A    between atoms: _143  and  _144
REMARK   52  A    between atoms: _146  and  _148
REMARK   53  A    between atoms: _148  and  _149
REMARK   54  A    between atoms: _148  and  _151
REMARK   55  A    between atoms: _151  and  _152
REMARK   56  A    between atoms: _157  and  _159
REMARK   57  A    between atoms: _159  and  _160
REMARK   58  A    between atoms: _159  and  _162
REMARK   59  A    between atoms: _162  and  _163
REMARK   60  A    between atoms: _173  and  _175
REMARK   61  A    between atoms: _175  and  _176
REMARK   62  A    between atoms: _178  and  _180
REMARK   63  A    between atoms: _180  and  _181
REMARK   64  A    between atoms: _184  and  _186
REMARK   65  A    between atoms: _186  and  _187
REMARK   66  A    between atoms: _186  and  _189
REMARK   67  A    between atoms: _189  and  _190
REMARK   68  A    between atoms: _193  and  _195
REMARK   69  A    between atoms: _195  and  _196
REMARK   70  A    between atoms: _195  and  _198
REMARK   71  A    between atoms: _198  and  _199
REMARK   72  A    between atoms: _204  and  _205
REMARK   73  A    between atoms: _207  and  _209
REMARK   74  A    between atoms: _209  and  _210
REMARK   75  A    between atoms: _209  and  _212
REMARK   76  A    between atoms: _212  and  _213
REMARK   77  A    between atoms: _218  and  _220
REMARK   78  A    between atoms: _220  and  _221
REMARK   79  A    between atoms: _224  and  _226
REMARK   80  A    between atoms: _226  and  _227
REMARK   81  A    between atoms: _226  and  _229
REMARK   82  A    between atoms: _229  and  _230
REMARK   83  A    between atoms: _233  and  _235
REMARK   84  A    between atoms: _235  and  _236
REMARK   85  A    between atoms: _235  and  _238
REMARK   86  A    between atoms: _238  and  _239
REMARK   87  A    between atoms: _245  and  _247
REMARK   88  A    between atoms: _247  and  _248
REMARK   89  A    between atoms: _247  and  _250
REMARK   90  A    between atoms: _250  and  _251
REMARK   91  A    between atoms: _256  and  _257
REMARK   92  A    between atoms: _259  and  _261
REMARK   93  A    between atoms: _261  and  _262
REMARK   94  A    between atoms: _264  and  _266
REMARK   95  A    between atoms: _266  and  _267
REMARK   96  A    between atoms: _269  and  _271
REMARK   97  A    between atoms: _271  and  _272
REMARK   98  A    between atoms: _271  and  _274
REMARK   99  A    between atoms: _274  and  _275
REMARK  100  A    between atoms: _280  and  _282
REMARK  101  A    between atoms: _282  and  _283
REMARK  102  A    between atoms: _285  and  _287
REMARK  103  A    between atoms: _287  and  _288
REMARK  104  A    between atoms: _287  and  _290
REMARK  105  A    between atoms: _290  and  _291
REMARK  106  A    between atoms: _296  and  _297
REMARK  107  A    between atoms: _299  and  _301
REMARK  108  A    between atoms: _301  and  _302
REMARK  109  A    between atoms: _301  and  _304
REMARK  110  A    between atoms: _304  and  _305
REMARK  111  A    between atoms: _310  and  _311
REMARK  112  A    between atoms: _313  and  _315
REMARK  113  A    between atoms: _315  and  _316
REMARK                            x       y       z     vdW  Elec       q    Type
REMARK                         _______ _______ _______ _____ _____    ______ ____
ROOT
ATOM      1  O   HOH     1      17.437 -14.742  57.213  0.00  0.00    +0.000 OA
ENDROOT
TORSDOF 0
REMARK  Name = ../refined-set-2016/1mfa/1mfa_pocket.pdb
REMARK  113 active torsions:
REMARK  status: ('A' for Active; 'I' for Inactive)
REMARK    1  A    between atoms: _1  and  _3
REMARK    2  A    between atoms: _3  and  _4
REMARK    3  A    between atoms: _6  and  _8
REMARK    4  A    between atoms: _8  and  _9
REMARK    5  A    between atoms: _8  and  _11
REMARK    6  A    between atoms: _11  and  _12
REMARK    7  A    between atoms: _17  and  _19
REMARK    8  A    between atoms: _19  and  _20
REMARK    9  A    between atoms: _19  and  _22
REMARK   10  A    between atoms: _22  and  _23
REMARK   11  A    between atoms: _28  and  _30
REMARK   12  A    between atoms: _30  and  _31
REMARK   13  A    between atoms: _30  and  _33
REMARK   14  A    between atoms: _33  and  _34
REMARK   15  A    between atoms: _39  and  _41
REMARK   16  A    between atoms: _41  and  _42
REMARK   17  A    between atoms: _41  and  _44
REMARK   18  A    between atoms: _44  and  _45
REMARK   19  A    between atoms: _48  and  _50
REMARK   20  A    between atoms: _50  and  _51
REMARK   21  A    between atoms: _50  and  _53
REMARK   22  A    between atoms: _53  and  _54
REMARK   23  A    between atoms: _64  and  _66
REMARK   24  A    between atoms: _66  and  _67
REMARK   25  A    between atoms: _66  and  _69
REMARK   26  A    between atoms: _69  and  _70
REMARK   27  A    between atoms: _72  and  _74
REMARK   28  A    between atoms: _74  and  _75
REMARK   29  A    between atoms: _74  and  _77
REMARK   30  A    between atoms: _77  and  _78
REMARK   31  A    between atoms: _83  and  _85
REMARK   32  A    between atoms: _85  and  _86
REMARK   33  A    between atoms: _85  and  _88
REMARK   34  A    between atoms: _88  and  _89
REMARK   35  A    between atoms: _94  and  _96
REMARK   36  A    between atoms: _96  and  _97
REMARK   37  A    between atoms: _96  and  _99
REMARK   38  A    between atoms: _99  and  _100
REMARK   39  A    between atoms: _105  and  _107
REMARK   40  A    between atoms: _107  and  _108
REMARK   41  A    between atoms: _107  and  _110
REMARK   42  A    between atoms: _110  and  _111
REMARK   43  A    between atoms: _121  and  _123
REMARK   44  A    between atoms: _123  and  _124
REMARK   45  A    between atoms: _123  and  _126
REMARK   46  A    between atoms: _126  and  _127
REMARK   47  A    between atoms: _137  and  _139
REMARK   48  A    between atoms: _139  and  _140
REMARK   49  A    between atoms: _139  and  _142
REMARK   50  A    between atoms: _142  and  _143
REMARK   51  A    between atoms: _143  and  _144
REMARK   52  A    between atoms: _146  and  _148
REMARK   53  A    between atoms: _148  and  _149
REMARK   54  A    between atoms: _148  and  _151
REMARK   55  A    between atoms: _151  and  _152
REMARK   56  A    between atoms: _157  and  _159
REMARK   57  A    between atoms: _159  and  _160
REMARK   58  A    between atoms: _159  and  _162
REMARK   59  A    between atoms: _162  and  _163
REMARK   60  A    between atoms: _173  and  _175
REMARK   61  A    between atoms: _175  and  _176
REMARK   62  A    between atoms: _178  and  _180
REMARK   63  A    between atoms: _180  and  _181
REMARK   64  A    between atoms: _184  and  _186
REMARK   65  A    between atoms: _186  and  _187
REMARK   66  A    between atoms: _186  and  _189
REMARK   67  A    between atoms: _189  and  _190
REMARK   68  A    between atoms: _193  and  _195
REMARK   69  A    between atoms: _195  and  _196
REMARK   70  A    between atoms: _195  and  _198
REMARK   71  A    between atoms: _198  and  _199
REMARK   72  A    between atoms: _204  and  _205
REMARK   73  A    between atoms: _207  and  _209
REMARK   74  A    between atoms: _209  and  _210
REMARK   75  A    between atoms: _209  and  _212
REMARK   76  A    between atoms: _212  and  _213
REMARK   77  A    between atoms: _218  and  _220
REMARK   78  A    between atoms: _220  and  _221
REMARK   79  A    between atoms: _224  and  _226
REMARK   80  A    between atoms: _226  and  _227
REMARK   81  A    between atoms: _226  and  _229
REMARK   82  A    between atoms: _229  and  _230
REMARK   83  A    between atoms: _233  and  _235
REMARK   84  A    between atoms: _235  and  _236
REMARK   85  A    between atoms: _235  and  _238
REMARK   86  A    between atoms: _238  and  _239
REMARK   87  A    between atoms: _245  and  _247
REMARK   88  A    between atoms: _247  and  _248
REMARK   89  A    between atoms: _247  and  _250
REMARK   90  A    between atoms: _250  and  _251
REMARK   91  A    between atoms: _256  and  _257
REMARK   92  A    between atoms: _259  and  _261
REMARK   93  A    between atoms: _261  and  _262
REMARK   94  A    between atoms: _264  and  _266
REMARK   95  A    between atoms: _266  and  _267
REMARK   96  A    between atoms: _269  and  _271
REMARK   97  A    between atoms: _271  and  _272
REMARK   98  A    between atoms: _271  and  _274
REMARK   99  A    between atoms: _274  and  _275
REMARK  100  A    between atoms: _280  and  _282
REMARK  101  A    between atoms: _282  and  _283
REMARK  102  A    between atoms: _285  and  _287
REMARK  103  A    between atoms: _287  and  _288
REMARK  104  A    between atoms: _287  and  _290
REMARK  105  A    between atoms: _290  and  _291
REMARK  106  A    between atoms: _296  and  _297
REMARK  107  A    between atoms: _299  and  _301
REMARK  108  A    between atoms: _301  and  _302
REMARK  109  A    between atoms: _301  and  _304
REMARK  110  A    between atoms: _304  and  _305
REMARK  111  A    between atoms: _310  and  _311
REMARK  112  A    between atoms: _313  and  _315
REMARK  113  A    between atoms: _315  and  _316
REMARK                            x       y       z     vdW  Elec       q    Type
REMARK                         _______ _______ _______ _____ _____    ______ ____
ROOT
ATOM      1  O   HOH     1       5.732 -18.541  60.388  0.00  0.00    +0.000 OA
ENDROOT
TORSDOF 0
REMARK  Name = ../refined-set-2016/1mfa/1mfa_pocket.pdb
REMARK  113 active torsions:
REMARK  status: ('A' for Active; 'I' for Inactive)
REMARK    1  A    between atoms: _1  and  _3
REMARK    2  A    between atoms: _3  and  _4
REMARK    3  A    between atoms: _6  and  _8
REMARK    4  A    between atoms: _8  and  _9
REMARK    5  A    between atoms: _8  and  _11
REMARK    6  A    between atoms: _11  and  _12
REMARK    7  A    between atoms: _17  and  _19
REMARK    8  A    between atoms: _19  and  _20
REMARK    9  A    between atoms: _19  and  _22
REMARK   10  A    between atoms: _22  and  _23
REMARK   11  A    between atoms: _28  and  _30
REMARK   12  A    between atoms: _30  and  _31
REMARK   13  A    between atoms: _30  and  _33
REMARK   14  A    between atoms: _33  and  _34
REMARK   15  A    between atoms: _39  and  _41
REMARK   16  A    between atoms: _41  and  _42
REMARK   17  A    between atoms: _41  and  _44
REMARK   18  A    between atoms: _44  and  _45
REMARK   19  A    between atoms: _48  and  _50
REMARK   20  A    between atoms: _50  and  _51
REMARK   21  A    between atoms: _50  and  _53
REMARK   22  A    between atoms: _53  and  _54
REMARK   23  A    between atoms: _64  and  _66
REMARK   24  A    between atoms: _66  and  _67
REMARK   25  A    between atoms: _66  and  _69
REMARK   26  A    between atoms: _69  and  _70
REMARK   27  A    between atoms: _72  and  _74
REMARK   28  A    between atoms: _74  and  _75
REMARK   29  A    between atoms: _74  and  _77
REMARK   30  A    between atoms: _77  and  _78
REMARK   31  A    between atoms: _83  and  _85
REMARK   32  A    between atoms: _85  and  _86
REMARK   33  A    between atoms: _85  and  _88
REMARK   34  A    between atoms: _88  and  _89
REMARK   35  A    between atoms: _94  and  _96
REMARK   36  A    between atoms: _96  and  _97
REMARK   37  A    between atoms: _96  and  _99
REMARK   38  A    between atoms: _99  and  _100
REMARK   39  A    between atoms: _105  and  _107
REMARK   40  A    between atoms: _107  and  _108
REMARK   41  A    between atoms: _107  and  _110
REMARK   42  A    between atoms: _110  and  _111
REMARK   43  A    between atoms: _121  and  _123
REMARK   44  A    between atoms: _123  and  _124
REMARK   45  A    between atoms: _123  and  _126
REMARK   46  A    between atoms: _126  and  _127
REMARK   47  A    between atoms: _137  and  _139
REMARK   48  A    between atoms: _139  and  _140
REMARK   49  A    between atoms: _139  and  _142
REMARK   50  A    between atoms: _142  and  _143
REMARK   51  A    between atoms: _143  and  _144
REMARK   52  A    between atoms: _146  and  _148
REMARK   53  A    between atoms: _148  and  _149
REMARK   54  A    between atoms: _148  and  _151
REMARK   55  A    between atoms: _151  and  _152
REMARK   56  A    between atoms: _157  and  _159
REMARK   57  A    between atoms: _159  and  _160
REMARK   58  A    between atoms: _159  and  _162
REMARK   59  A    between atoms: _162  and  _163
REMARK   60  A    between atoms: _173  and  _175
REMARK   61  A    between atoms: _175  and  _176
REMARK   62  A    between atoms: _178  and  _180
REMARK   63  A    between atoms: _180  and  _181
REMARK   64  A    between atoms: _184  and  _186
REMARK   65  A    between atoms: _186  and  _187
REMARK   66  A    between atoms: _186  and  _189
REMARK   67  A    between atoms: _189  and  _190
REMARK   68  A    between atoms: _193  and  _195
REMARK   69  A    between atoms: _195  and  _196
REMARK   70  A    between atoms: _195  and  _198
REMARK   71  A    between atoms: _198  and  _199
REMARK   72  A    between atoms: _204  and  _205
REMARK   73  A    between atoms: _207  and  _209
REMARK   74  A    between atoms: _209  and  _210
REMARK   75  A    between atoms: _209  and  _212
REMARK   76  A    between atoms: _212  and  _213
REMARK   77  A    between atoms: _218  and  _220
REMARK   78  A    between atoms: _220  and  _221
REMARK   79  A    between atoms: _224  and  _226
REMARK   80  A    between atoms: _226  and  _227
REMARK   81  A    between atoms: _226  and  _229
REMARK   82  A    between atoms: _229  and  _230
REMARK   83  A    between atoms: _233  and  _235
REMARK   84  A    between atoms: _235  and  _236
REMARK   85  A    between atoms: _235  and  _238
REMARK   86  A    between atoms: _238  and  _239
REMARK   87  A    between atoms: _245  and  _247
REMARK   88  A    between atoms: _247  and  _248
REMARK   89  A    between atoms: _247  and  _250
REMARK   90  A    between atoms: _250  and  _251
REMARK   91  A    between atoms: _256  and  _257
REMARK   92  A    between atoms: _259  and  _261
REMARK   93  A    between atoms: _261  and  _262
REMARK   94  A    between atoms: _264  and  _266
REMARK   95  A    between atoms: _266  and  _267
REMARK   96  A    between atoms: _269  and  _271
REMARK   97  A    between atoms: _271  and  _272
REMARK   98  A    between atoms: _271  and  _274
REMARK   99  A    between atoms: _274  and  _275
REMARK  100  A    between atoms: _280  and  _282
REMARK  101  A    between atoms: _282  and  _283
REMARK  102  A    between atoms: _285  and  _287
REMARK  103  A    between atoms: _287  and  _288
REMARK  104  A    between atoms: _287  and  _290
REMARK  105  A    between atoms: _290  and  _291
REMARK  106  A    between atoms: _296  and  _297
REMARK  107  A    between atoms: _299  and  _301
REMARK  108  A    between atoms: _301  and  _302
REMARK  109  A    between atoms: _301  and  _304
REMARK  110  A    between atoms: _304  and  _305
REMARK  111  A    between atoms: _310  and  _311
REMARK  112  A    between atoms: _313  and  _315
REMARK  113  A    between atoms: _315  and  _316
REMARK                            x       y       z     vdW  Elec       q    Type
REMARK                         _______ _______ _______ _____ _____    ______ ____
ROOT
ATOM      1  O   HOH     1      11.813 -12.622  67.230  0.00  0.00    +0.000 OA
ENDROOT
TORSDOF 0
REMARK  Name = ../refined-set-2016/1mfa/1mfa_pocket.pdb
REMARK  113 active torsions:
REMARK  status: ('A' for Active; 'I' for Inactive)
REMARK    1  A    between atoms: _1  and  _3
REMARK    2  A    between atoms: _3  and  _4
REMARK    3  A    between atoms: _6  and  _8
REMARK    4  A    between atoms: _8  and  _9
REMARK    5  A    between atoms: _8  and  _11
REMARK    6  A    between atoms: _11  and  _12
REMARK    7  A    between atoms: _17  and  _19
REMARK    8  A    between atoms: _19  and  _20
REMARK    9  A    between atoms: _19  and  _22
REMARK   10  A    between atoms: _22  and  _23
REMARK   11  A    between atoms: _28  and  _30
REMARK   12  A    between atoms: _30  and  _31
REMARK   13  A    between atoms: _30  and  _33
REMARK   14  A    between atoms: _33  and  _34
REMARK   15  A    between atoms: _39  and  _41
REMARK   16  A    between atoms: _41  and  _42
REMARK   17  A    between atoms: _41  and  _44
REMARK   18  A    between atoms: _44  and  _45
REMARK   19  A    between atoms: _48  and  _50
REMARK   20  A    between atoms: _50  and  _51
REMARK   21  A    between atoms: _50  and  _53
REMARK   22  A    between atoms: _53  and  _54
REMARK   23  A    between atoms: _64  and  _66
REMARK   24  A    between atoms: _66  and  _67
REMARK   25  A    between atoms: _66  and  _69
REMARK   26  A    between atoms: _69  and  _70
REMARK   27  A    between atoms: _72  and  _74
REMARK   28  A    between atoms: _74  and  _75
REMARK   29  A    between atoms: _74  and  _77
REMARK   30  A    between atoms: _77  and  _78
REMARK   31  A    between atoms: _83  and  _85
REMARK   32  A    between atoms: _85  and  _86
REMARK   33  A    between atoms: _85  and  _88
REMARK   34  A    between atoms: _88  and  _89
REMARK   35  A    between atoms: _94  and  _96
REMARK   36  A    between atoms: _96  and  _97
REMARK   37  A    between atoms: _96  and  _99
REMARK   38  A    between atoms: _99  and  _100
REMARK   39  A    between atoms: _105  and  _107
REMARK   40  A    between atoms: _107  and  _108
REMARK   41  A    between atoms: _107  and  _110
REMARK   42  A    between atoms: _110  and  _111
REMARK   43  A    between atoms: _121  and  _123
REMARK   44  A    between atoms: _123  and  _124
REMARK   45  A    between atoms: _123  and  _126
REMARK   46  A    between atoms: _126  and  _127
REMARK   47  A    between atoms: _137  and  _139
REMARK   48  A    between atoms: _139  and  _140
REMARK   49  A    between atoms: _139  and  _142
REMARK   50  A    between atoms: _142  and  _143
REMARK   51  A    between atoms: _143  and  _144
REMARK   52  A    between atoms: _146  and  _148
REMARK   53  A    between atoms: _148  and  _149
REMARK   54  A    between atoms: _148  and  _151
REMARK   55  A    between atoms: _151  and  _152
REMARK   56  A    between atoms: _157  and  _159
REMARK   57  A    between atoms: _159  and  _160
REMARK   58  A    between atoms: _159  and  _162
REMARK   59  A    between atoms: _162  and  _163
REMARK   60  A    between atoms: _173  and  _175
REMARK   61  A    between atoms: _175  and  _176
REMARK   62  A    between atoms: _178  and  _180
REMARK   63  A    between atoms: _180  and  _181
REMARK   64  A    between atoms: _184  and  _186
REMARK   65  A    between atoms: _186  and  _187
REMARK   66  A    between atoms: _186  and  _189
REMARK   67  A    between atoms: _189  and  _190
REMARK   68  A    between atoms: _193  and  _195
REMARK   69  A    between atoms: _195  and  _196
REMARK   70  A    between atoms: _195  and  _198
REMARK   71  A    between atoms: _198  and  _199
REMARK   72  A    between atoms: _204  and  _205
REMARK   73  A    between atoms: _207  and  _209
REMARK   74  A    between atoms: _209  and  _210
REMARK   75  A    between atoms: _209  and  _212
REMARK   76  A    between atoms: _212  and  _213
REMARK   77  A    between atoms: _218  and  _220
REMARK   78  A    between atoms: _220  and  _221
REMARK   79  A    between atoms: _224  and  _226
REMARK   80  A    between atoms: _226  and  _227
REMARK   81  A    between atoms: _226  and  _229
REMARK   82  A    between atoms: _229  and  _230
REMARK   83  A    between atoms: _233  and  _235
REMARK   84  A    between atoms: _235  and  _236
REMARK   85  A    between atoms: _235  and  _238
REMARK   86  A    between atoms: _238  and  _239
REMARK   87  A    between atoms: _245  and  _247
REMARK   88  A    between atoms: _247  and  _248
REMARK   89  A    between atoms: _247  and  _250
REMARK   90  A    between atoms: _250  and  _251
REMARK   91  A    between atoms: _256  and  _257
REMARK   92  A    between atoms: _259  and  _261
REMARK   93  A    between atoms: _261  and  _262
REMARK   94  A    between atoms: _264  and  _266
REMARK   95  A    between atoms: _266  and  _267
REMARK   96  A    between atoms: _269  and  _271
REMARK   97  A    between atoms: _271  and  _272
REMARK   98  A    between atoms: _271  and  _274
REMARK   99  A    between atoms: _274  and  _275
REMARK  100  A    between atoms: _280  and  _282
REMARK  101  A    between atoms: _282  and  _283
REMARK  102  A    between atoms: _285  and  _287
REMARK  103  A    between atoms: _287  and  _288
REMARK  104  A    between atoms: _287  and  _290
REMARK  105  A    between atoms: _290  and  _291
REMARK  106  A    between atoms: _296  and  _297
REMARK  107  A    between atoms: _299  and  _301
REMARK  108  A    between atoms: _301  and  _302
REMARK  109  A    between atoms: _301  and  _304
REMARK  110  A    between atoms: _304  and  _305
REMARK  111  A    between atoms: _310  and  _311
REMARK  112  A    between atoms: _313  and  _315
REMARK  113  A    between atoms: _315  and  _316
REMARK                            x       y       z     vdW  Elec       q    Type
REMARK                         _______ _______ _______ _____ _____    ______ ____
ROOT
ATOM      1  O   HOH     1       1.809  -9.168  59.602  0.00  0.00    +0.000 OA
ENDROOT
TORSDOF 0
REMARK  Name = ../refined-set-2016/1mfa/1mfa_pocket.pdb
REMARK  113 active torsions:
REMARK  status: ('A' for Active; 'I' for Inactive)
REMARK    1  A    between atoms: _1  and  _3
REMARK    2  A    between atoms: _3  and  _4
REMARK    3  A    between atoms: _6  and  _8
REMARK    4  A    between atoms: _8  and  _9
REMARK    5  A    between atoms: _8  and  _11
REMARK    6  A    between atoms: _11  and  _12
REMARK    7  A    between atoms: _17  and  _19
REMARK    8  A    between atoms: _19  and  _20
REMARK    9  A    between atoms: _19  and  _22
REMARK   10  A    between atoms: _22  and  _23
REMARK   11  A    between atoms: _28  and  _30
REMARK   12  A    between atoms: _30  and  _31
REMARK   13  A    between atoms: _30  and  _33
REMARK   14  A    between atoms: _33  and  _34
REMARK   15  A    between atoms: _39  and  _41
REMARK   16  A    between atoms: _41  and  _42
REMARK   17  A    between atoms: _41  and  _44
REMARK   18  A    between atoms: _44  and  _45
REMARK   19  A    between atoms: _48  and  _50
REMARK   20  A    between atoms: _50  and  _51
REMARK   21  A    between atoms: _50  and  _53
REMARK   22  A    between atoms: _53  and  _54
REMARK   23  A    between atoms: _64  and  _66
REMARK   24  A    between atoms: _66  and  _67
REMARK   25  A    between atoms: _66  and  _69
REMARK   26  A    between atoms: _69  and  _70
REMARK   27  A    between atoms: _72  and  _74
REMARK   28  A    between atoms: _74  and  _75
REMARK   29  A    between atoms: _74  and  _77
REMARK   30  A    between atoms: _77  and  _78
REMARK   31  A    between atoms: _83  and  _85
REMARK   32  A    between atoms: _85  and  _86
REMARK   33  A    between atoms: _85  and  _88
REMARK   34  A    between atoms: _88  and  _89
REMARK   35  A    between atoms: _94  and  _96
REMARK   36  A    between atoms: _96  and  _97
REMARK   37  A    between atoms: _96  and  _99
REMARK   38  A    between atoms: _99  and  _100
REMARK   39  A    between atoms: _105  and  _107
REMARK   40  A    between atoms: _107  and  _108
REMARK   41  A    between atoms: _107  and  _110
REMARK   42  A    between atoms: _110  and  _111
REMARK   43  A    between atoms: _121  and  _123
REMARK   44  A    between atoms: _123  and  _124
REMARK   45  A    between atoms: _123  and  _126
REMARK   46  A    between atoms: _126  and  _127
REMARK   47  A    between atoms: _137  and  _139
REMARK   48  A    between atoms: _139  and  _140
REMARK   49  A    between atoms: _139  and  _142
REMARK   50  A    between atoms: _142  and  _143
REMARK   51  A    between atoms: _143  and  _144
REMARK   52  A    between atoms: _146  and  _148
REMARK   53  A    between atoms: _148  and  _149
REMARK   54  A    between atoms: _148  and  _151
REMARK   55  A    between atoms: _151  and  _152
REMARK   56  A    between atoms: _157  and  _159
REMARK   57  A    between atoms: _159  and  _160
REMARK   58  A    between atoms: _159  and  _162
REMARK   59  A    between atoms: _162  and  _163
REMARK   60  A    between atoms: _173  and  _175
REMARK   61  A    between atoms: _175  and  _176
REMARK   62  A    between atoms: _178  and  _180
REMARK   63  A    between atoms: _180  and  _181
REMARK   64  A    between atoms: _184  and  _186
REMARK   65  A    between atoms: _186  and  _187
REMARK   66  A    between atoms: _186  and  _189
REMARK   67  A    between atoms: _189  and  _190
REMARK   68  A    between atoms: _193  and  _195
REMARK   69  A    between atoms: _195  and  _196
REMARK   70  A    between atoms: _195  and  _198
REMARK   71  A    between atoms: _198  and  _199
REMARK   72  A    between atoms: _204  and  _205
REMARK   73  A    between atoms: _207  and  _209
REMARK   74  A    between atoms: _209  and  _210
REMARK   75  A    between atoms: _209  and  _212
REMARK   76  A    between atoms: _212  and  _213
REMARK   77  A    between atoms: _218  and  _220
REMARK   78  A    between atoms: _220  and  _221
REMARK   79  A    between atoms: _224  and  _226
REMARK   80  A    between atoms: _226  and  _227
REMARK   81  A    between atoms: _226  and  _229
REMARK   82  A    between atoms: _229  and  _230
REMARK   83  A    between atoms: _233  and  _235
REMARK   84  A    between atoms: _235  and  _236
REMARK   85  A    between atoms: _235  and  _238
REMARK   86  A    between atoms: _238  and  _239
REMARK   87  A    between atoms: _245  and  _247
REMARK   88  A    between atoms: _247  and  _248
REMARK   89  A    between atoms: _247  and  _250
REMARK   90  A    between atoms: _250  and  _251
REMARK   91  A    between atoms: _256  and  _257
REMARK   92  A    between atoms: _259  and  _261
REMARK   93  A    between atoms: _261  and  _262
REMARK   94  A    between atoms: _264  and  _266
REMARK   95  A    between atoms: _266  and  _267
REMARK   96  A    between atoms: _269  and  _271
REMARK   97  A    between atoms: _271  and  _272
REMARK   98  A    between atoms: _271  and  _274
REMARK   99  A    between atoms: _274  and  _275
REMARK  100  A    between atoms: _280  and  _282
REMARK  101  A    between atoms: _282  and  _283
REMARK  102  A    between atoms: _285  and  _287
REMARK  103  A    between atoms: _287  and  _288
REMARK  104  A    between atoms: _287  and  _290
REMARK  105  A    between atoms: _290  and  _291
REMARK  106  A    between atoms: _296  and  _297
REMARK  107  A    between atoms: _299  and  _301
REMARK  108  A    between atoms: _301  and  _302
REMARK  109  A    between atoms: _301  and  _304
REMARK  110  A    between atoms: _304  and  _305
REMARK  111  A    between atoms: _310  and  _311
REMARK  112  A    between atoms: _313  and  _315
REMARK  113  A    between atoms: _315  and  _316
REMARK                            x       y       z     vdW  Elec       q    Type
REMARK                         _______ _______ _______ _____ _____    ______ ____
ROOT
ATOM      1  O   HOH     1       5.671 -13.815  61.320  0.00  0.00    +0.000 OA
ENDROOT
TORSDOF 0
REMARK  Name = ../refined-set-2016/1mfa/1mfa_pocket.pdb
REMARK  113 active torsions:
REMARK  status: ('A' for Active; 'I' for Inactive)
REMARK    1  A    between atoms: _1  and  _3
REMARK    2  A    between atoms: _3  and  _4
REMARK    3  A    between atoms: _6  and  _8
REMARK    4  A    between atoms: _8  and  _9
REMARK    5  A    between atoms: _8  and  _11
REMARK    6  A    between atoms: _11  and  _12
REMARK    7  A    between atoms: _17  and  _19
REMARK    8  A    between atoms: _19  and  _20
REMARK    9  A    between atoms: _19  and  _22
REMARK   10  A    between atoms: _22  and  _23
REMARK   11  A    between atoms: _28  and  _30
REMARK   12  A    between atoms: _30  and  _31
REMARK   13  A    between atoms: _30  and  _33
REMARK   14  A    between atoms: _33  and  _34
REMARK   15  A    between atoms: _39  and  _41
REMARK   16  A    between atoms: _41  and  _42
REMARK   17  A    between atoms: _41  and  _44
REMARK   18  A    between atoms: _44  and  _45
REMARK   19  A    between atoms: _48  and  _50
REMARK   20  A    between atoms: _50  and  _51
REMARK   21  A    between atoms: _50  and  _53
REMARK   22  A    between atoms: _53  and  _54
REMARK   23  A    between atoms: _64  and  _66
REMARK   24  A    between atoms: _66  and  _67
REMARK   25  A    between atoms: _66  and  _69
REMARK   26  A    between atoms: _69  and  _70
REMARK   27  A    between atoms: _72  and  _74
REMARK   28  A    between atoms: _74  and  _75
REMARK   29  A    between atoms: _74  and  _77
REMARK   30  A    between atoms: _77  and  _78
REMARK   31  A    between atoms: _83  and  _85
REMARK   32  A    between atoms: _85  and  _86
REMARK   33  A    between atoms: _85  and  _88
REMARK   34  A    between atoms: _88  and  _89
REMARK   35  A    between atoms: _94  and  _96
REMARK   36  A    between atoms: _96  and  _97
REMARK   37  A    between atoms: _96  and  _99
REMARK   38  A    between atoms: _99  and  _100
REMARK   39  A    between atoms: _105  and  _107
REMARK   40  A    between atoms: _107  and  _108
REMARK   41  A    between atoms: _107  and  _110
REMARK   42  A    between atoms: _110  and  _111
REMARK   43  A    between atoms: _121  and  _123
REMARK   44  A    between atoms: _123  and  _124
REMARK   45  A    between atoms: _123  and  _126
REMARK   46  A    between atoms: _126  and  _127
REMARK   47  A    between atoms: _137  and  _139
REMARK   48  A    between atoms: _139  and  _140
REMARK   49  A    between atoms: _139  and  _142
REMARK   50  A    between atoms: _142  and  _143
REMARK   51  A    between atoms: _143  and  _144
REMARK   52  A    between atoms: _146  and  _148
REMARK   53  A    between atoms: _148  and  _149
REMARK   54  A    between atoms: _148  and  _151
REMARK   55  A    between atoms: _151  and  _152
REMARK   56  A    between atoms: _157  and  _159
REMARK   57  A    between atoms: _159  and  _160
REMARK   58  A    between atoms: _159  and  _162
REMARK   59  A    between atoms: _162  and  _163
REMARK   60  A    between atoms: _173  and  _175
REMARK   61  A    between atoms: _175  and  _176
REMARK   62  A    between atoms: _178  and  _180
REMARK   63  A    between atoms: _180  and  _181
REMARK   64  A    between atoms: _184  and  _186
REMARK   65  A    between atoms: _186  and  _187
REMARK   66  A    between atoms: _186  and  _189
REMARK   67  A    between atoms: _189  and  _190
REMARK   68  A    between atoms: _193  and  _195
REMARK   69  A    between atoms: _195  and  _196
REMARK   70  A    between atoms: _195  and  _198
REMARK   71  A    between atoms: _198  and  _199
REMARK   72  A    between atoms: _204  and  _205
REMARK   73  A    between atoms: _207  and  _209
REMARK   74  A    between atoms: _209  and  _210
REMARK   75  A    between atoms: _209  and  _212
REMARK   76  A    between atoms: _212  and  _213
REMARK   77  A    between atoms: _218  and  _220
REMARK   78  A    between atoms: _220  and  _221
REMARK   79  A    between atoms: _224  and  _226
REMARK   80  A    between atoms: _226  and  _227
REMARK   81  A    between atoms: _226  and  _229
REMARK   82  A    between atoms: _229  and  _230
REMARK   83  A    between atoms: _233  and  _235
REMARK   84  A    between atoms: _235  and  _236
REMARK   85  A    between atoms: _235  and  _238
REMARK   86  A    between atoms: _238  and  _239
REMARK   87  A    between atoms: _245  and  _247
REMARK   88  A    between atoms: _247  and  _248
REMARK   89  A    between atoms: _247  and  _250
REMARK   90  A    between atoms: _250  and  _251
REMARK   91  A    between atoms: _256  and  _257
REMARK   92  A    between atoms: _259  and  _261
REMARK   93  A    between atoms: _261  and  _262
REMARK   94  A    between atoms: _264  and  _266
REMARK   95  A    between atoms: _266  and  _267
REMARK   96  A    between atoms: _269  and  _271
REMARK   97  A    between atoms: _271  and  _272
REMARK   98  A    between atoms: _271  and  _274
REMARK   99  A    between atoms: _274  and  _275
REMARK  100  A    between atoms: _280  and  _282
REMARK  101  A    between atoms: _282  and  _283
REMARK  102  A    between atoms: _285  and  _287
REMARK  103  A    between atoms: _287  and  _288
REMARK  104  A    between atoms: _287  and  _290
REMARK  105  A    between atoms: _290  and  _291
REMARK  106  A    between atoms: _296  and  _297
REMARK  107  A    between atoms: _299  and  _301
REMARK  108  A    between atoms: _301  and  _302
REMARK  109  A    between atoms: _301  and  _304
REMARK  110  A    between atoms: _304  and  _305
REMARK  111  A    between atoms: _310  and  _311
REMARK  112  A    between atoms: _313  and  _315
REMARK  113  A    between atoms: _315  and  _316
REMARK                            x       y       z     vdW  Elec       q    Type
REMARK                         _______ _______ _______ _____ _____    ______ ____
ROOT
ATOM      1  O   HOH     1       3.102 -14.669  60.554  0.00  0.00    +0.000 OA
ENDROOT
TORSDOF 0
REMARK  Name = ../refined-set-2016/1mfa/1mfa_pocket.pdb
REMARK  113 active torsions:
REMARK  status: ('A' for Active; 'I' for Inactive)
REMARK    1  A    between atoms: _1  and  _3
REMARK    2  A    between atoms: _3  and  _4
REMARK    3  A    between atoms: _6  and  _8
REMARK    4  A    between atoms: _8  and  _9
REMARK    5  A    between atoms: _8  and  _11
REMARK    6  A    between atoms: _11  and  _12
REMARK    7  A    between atoms: _17  and  _19
REMARK    8  A    between atoms: _19  and  _20
REMARK    9  A    between atoms: _19  and  _22
REMARK   10  A    between atoms: _22  and  _23
REMARK   11  A    between atoms: _28  and  _30
REMARK   12  A    between atoms: _30  and  _31
REMARK   13  A    between atoms: _30  and  _33
REMARK   14  A    between atoms: _33  and  _34
REMARK   15  A    between atoms: _39  and  _41
REMARK   16  A    between atoms: _41  and  _42
REMARK   17  A    between atoms: _41  and  _44
REMARK   18  A    between atoms: _44  and  _45
REMARK   19  A    between atoms: _48  and  _50
REMARK   20  A    between atoms: _50  and  _51
REMARK   21  A    between atoms: _50  and  _53
REMARK   22  A    between atoms: _53  and  _54
REMARK   23  A    between atoms: _64  and  _66
REMARK   24  A    between atoms: _66  and  _67
REMARK   25  A    between atoms: _66  and  _69
REMARK   26  A    between atoms: _69  and  _70
REMARK   27  A    between atoms: _72  and  _74
REMARK   28  A    between atoms: _74  and  _75
REMARK   29  A    between atoms: _74  and  _77
REMARK   30  A    between atoms: _77  and  _78
REMARK   31  A    between atoms: _83  and  _85
REMARK   32  A    between atoms: _85  and  _86
REMARK   33  A    between atoms: _85  and  _88
REMARK   34  A    between atoms: _88  and  _89
REMARK   35  A    between atoms: _94  and  _96
REMARK   36  A    between atoms: _96  and  _97
REMARK   37  A    between atoms: _96  and  _99
REMARK   38  A    between atoms: _99  and  _100
REMARK   39  A    between atoms: _105  and  _107
REMARK   40  A    between atoms: _107  and  _108
REMARK   41  A    between atoms: _107  and  _110
REMARK   42  A    between atoms: _110  and  _111
REMARK   43  A    between atoms: _121  and  _123
REMARK   44  A    between atoms: _123  and  _124
REMARK   45  A    between atoms: _123  and  _126
REMARK   46  A    between atoms: _126  and  _127
REMARK   47  A    between atoms: _137  and  _139
REMARK   48  A    between atoms: _139  and  _140
REMARK   49  A    between atoms: _139  and  _142
REMARK   50  A    between atoms: _142  and  _143
REMARK   51  A    between atoms: _143  and  _144
REMARK   52  A    between atoms: _146  and  _148
REMARK   53  A    between atoms: _148  and  _149
REMARK   54  A    between atoms: _148  and  _151
REMARK   55  A    between atoms: _151  and  _152
REMARK   56  A    between atoms: _157  and  _159
REMARK   57  A    between atoms: _159  and  _160
REMARK   58  A    between atoms: _159  and  _162
REMARK   59  A    between atoms: _162  and  _163
REMARK   60  A    between atoms: _173  and  _175
REMARK   61  A    between atoms: _175  and  _176
REMARK   62  A    between atoms: _178  and  _180
REMARK   63  A    between atoms: _180  and  _181
REMARK   64  A    between atoms: _184  and  _186
REMARK   65  A    between atoms: _186  and  _187
REMARK   66  A    between atoms: _186  and  _189
REMARK   67  A    between atoms: _189  and  _190
REMARK   68  A    between atoms: _193  and  _195
REMARK   69  A    between atoms: _195  and  _196
REMARK   70  A    between atoms: _195  and  _198
REMARK   71  A    between atoms: _198  and  _199
REMARK   72  A    between atoms: _204  and  _205
REMARK   73  A    between atoms: _207  and  _209
REMARK   74  A    between atoms: _209  and  _210
REMARK   75  A    between atoms: _209  and  _212
REMARK   76  A    between atoms: _212  and  _213
REMARK   77  A    between atoms: _218  and  _220
REMARK   78  A    between atoms: _220  and  _221
REMARK   79  A    between atoms: _224  and  _226
REMARK   80  A    between atoms: _226  and  _227
REMARK   81  A    between atoms: _226  and  _229
REMARK   82  A    between atoms: _229  and  _230
REMARK   83  A    between atoms: _233  and  _235
REMARK   84  A    between atoms: _235  and  _236
REMARK   85  A    between atoms: _235  and  _238
REMARK   86  A    between atoms: _238  and  _239
REMARK   87  A    between atoms: _245  and  _247
REMARK   88  A    between atoms: _247  and  _248
REMARK   89  A    between atoms: _247  and  _250
REMARK   90  A    between atoms: _250  and  _251
REMARK   91  A    between atoms: _256  and  _257
REMARK   92  A    between atoms: _259  and  _261
REMARK   93  A    between atoms: _261  and  _262
REMARK   94  A    between atoms: _264  and  _266
REMARK   95  A    between atoms: _266  and  _267
REMARK   96  A    between atoms: _269  and  _271
REMARK   97  A    between atoms: _271  and  _272
REMARK   98  A    between atoms: _271  and  _274
REMARK   99  A    between atoms: _274  and  _275
REMARK  100  A    between atoms: _280  and  _282
REMARK  101  A    between atoms: _282  and  _283
REMARK  102  A    between atoms: _285  and  _287
REMARK  103  A    between atoms: _287  and  _288
REMARK  104  A    between atoms: _287  and  _290
REMARK  105  A    between atoms: _290  and  _291
REMARK  106  A    between atoms: _296  and  _297
REMARK  107  A    between atoms: _299  and  _301
REMARK  108  A    between atoms: _301  and  _302
REMARK  109  A    between atoms: _301  and  _304
REMARK  110  A    between atoms: _304  and  _305
REMARK  111  A    between atoms: _310  and  _311
REMARK  112  A    between atoms: _313  and  _315
REMARK  113  A    between atoms: _315  and  _316
REMARK                            x       y       z     vdW  Elec       q    Type
REMARK                         _______ _______ _______ _____ _____    ______ ____
ROOT
ATOM      1  O   HOH     1       4.411  -8.959  61.321  0.00  0.00    +0.000 OA
ENDROOT
TORSDOF 0
REMARK  Name = ../refined-set-2016/1mfa/1mfa_pocket.pdb
REMARK  113 active torsions:
REMARK  status: ('A' for Active; 'I' for Inactive)
REMARK    1  A    between atoms: _1  and  _3
REMARK    2  A    between atoms: _3  and  _4
REMARK    3  A    between atoms: _6  and  _8
REMARK    4  A    between atoms: _8  and  _9
REMARK    5  A    between atoms: _8  and  _11
REMARK    6  A    between atoms: _11  and  _12
REMARK    7  A    between atoms: _17  and  _19
REMARK    8  A    between atoms: _19  and  _20
REMARK    9  A    between atoms: _19  and  _22
REMARK   10  A    between atoms: _22  and  _23
REMARK   11  A    between atoms: _28  and  _30
REMARK   12  A    between atoms: _30  and  _31
REMARK   13  A    between atoms: _30  and  _33
REMARK   14  A    between atoms: _33  and  _34
REMARK   15  A    between atoms: _39  and  _41
REMARK   16  A    between atoms: _41  and  _42
REMARK   17  A    between atoms: _41  and  _44
REMARK   18  A    between atoms: _44  and  _45
REMARK   19  A    between atoms: _48  and  _50
REMARK   20  A    between atoms: _50  and  _51
REMARK   21  A    between atoms: _50  and  _53
REMARK   22  A    between atoms: _53  and  _54
REMARK   23  A    between atoms: _64  and  _66
REMARK   24  A    between atoms: _66  and  _67
REMARK   25  A    between atoms: _66  and  _69
REMARK   26  A    between atoms: _69  and  _70
REMARK   27  A    between atoms: _72  and  _74
REMARK   28  A    between atoms: _74  and  _75
REMARK   29  A    between atoms: _74  and  _77
REMARK   30  A    between atoms: _77  and  _78
REMARK   31  A    between atoms: _83  and  _85
REMARK   32  A    between atoms: _85  and  _86
REMARK   33  A    between atoms: _85  and  _88
REMARK   34  A    between atoms: _88  and  _89
REMARK   35  A    between atoms: _94  and  _96
REMARK   36  A    between atoms: _96  and  _97
REMARK   37  A    between atoms: _96  and  _99
REMARK   38  A    between atoms: _99  and  _100
REMARK   39  A    between atoms: _105  and  _107
REMARK   40  A    between atoms: _107  and  _108
REMARK   41  A    between atoms: _107  and  _110
REMARK   42  A    between atoms: _110  and  _111
REMARK   43  A    between atoms: _121  and  _123
REMARK   44  A    between atoms: _123  and  _124
REMARK   45  A    between atoms: _123  and  _126
REMARK   46  A    between atoms: _126  and  _127
REMARK   47  A    between atoms: _137  and  _139
REMARK   48  A    between atoms: _139  and  _140
REMARK   49  A    between atoms: _139  and  _142
REMARK   50  A    between atoms: _142  and  _143
REMARK   51  A    between atoms: _143  and  _144
REMARK   52  A    between atoms: _146  and  _148
REMARK   53  A    between atoms: _148  and  _149
REMARK   54  A    between atoms: _148  and  _151
REMARK   55  A    between atoms: _151  and  _152
REMARK   56  A    between atoms: _157  and  _159
REMARK   57  A    between atoms: _159  and  _160
REMARK   58  A    between atoms: _159  and  _162
REMARK   59  A    between atoms: _162  and  _163
REMARK   60  A    between atoms: _173  and  _175
REMARK   61  A    between atoms: _175  and  _176
REMARK   62  A    between atoms: _178  and  _180
REMARK   63  A    between atoms: _180  and  _181
REMARK   64  A    between atoms: _184  and  _186
REMARK   65  A    between atoms: _186  and  _187
REMARK   66  A    between atoms: _186  and  _189
REMARK   67  A    between atoms: _189  and  _190
REMARK   68  A    between atoms: _193  and  _195
REMARK   69  A    between atoms: _195  and  _196
REMARK   70  A    between atoms: _195  and  _198
REMARK   71  A    between atoms: _198  and  _199
REMARK   72  A    between atoms: _204  and  _205
REMARK   73  A    between atoms: _207  and  _209
REMARK   74  A    between atoms: _209  and  _210
REMARK   75  A    between atoms: _209  and  _212
REMARK   76  A    between atoms: _212  and  _213
REMARK   77  A    between atoms: _218  and  _220
REMARK   78  A    between atoms: _220  and  _221
REMARK   79  A    between atoms: _224  and  _226
REMARK   80  A    between atoms: _226  and  _227
REMARK   81  A    between atoms: _226  and  _229
REMARK   82  A    between atoms: _229  and  _230
REMARK   83  A    between atoms: _233  and  _235
REMARK   84  A    between atoms: _235  and  _236
REMARK   85  A    between atoms: _235  and  _238
REMARK   86  A    between atoms: _238  and  _239
REMARK   87  A    between atoms: _245  and  _247
REMARK   88  A    between atoms: _247  and  _248
REMARK   89  A    between atoms: _247  and  _250
REMARK   90  A    between atoms: _250  and  _251
REMARK   91  A    between atoms: _256  and  _257
REMARK   92  A    between atoms: _259  and  _261
REMARK   93  A    between atoms: _261  and  _262
REMARK   94  A    between atoms: _264  and  _266
REMARK   95  A    between atoms: _266  and  _267
REMARK   96  A    between atoms: _269  and  _271
REMARK   97  A    between atoms: _271  and  _272
REMARK   98  A    between atoms: _271  and  _274
REMARK   99  A    between atoms: _274  and  _275
REMARK  100  A    between atoms: _280  and  _282
REMARK  101  A    between atoms: _282  and  _283
REMARK  102  A    between atoms: _285  and  _287
REMARK  103  A    between atoms: _287  and  _288
REMARK  104  A    between atoms: _287  and  _290
REMARK  105  A    between atoms: _290  and  _291
REMARK  106  A    between atoms: _296  and  _297
REMARK  107  A    between atoms: _299  and  _301
REMARK  108  A    between atoms: _301  and  _302
REMARK  109  A    between atoms: _301  and  _304
REMARK  110  A    between atoms: _304  and  _305
REMARK  111  A    between atoms: _310  and  _311
REMARK  112  A    between atoms: _313  and  _315
REMARK  113  A    between atoms: _315  and  _316
REMARK                            x       y       z     vdW  Elec       q    Type
REMARK                         _______ _______ _______ _____ _____    ______ ____
ROOT
ATOM      1  O   HOH     1       1.463 -13.804  58.583  0.00  0.00    +0.000 OA
ENDROOT
TORSDOF 0
REMARK  Name = ../refined-set-2016/1mfa/1mfa_pocket.pdb
REMARK  113 active torsions:
REMARK  status: ('A' for Active; 'I' for Inactive)
REMARK    1  A    between atoms: _1  and  _3
REMARK    2  A    between atoms: _3  and  _4
REMARK    3  A    between atoms: _6  and  _8
REMARK    4  A    between atoms: _8  and  _9
REMARK    5  A    between atoms: _8  and  _11
REMARK    6  A    between atoms: _11  and  _12
REMARK    7  A    between atoms: _17  and  _19
REMARK    8  A    between atoms: _19  and  _20
REMARK    9  A    between atoms: _19  and  _22
REMARK   10  A    between atoms: _22  and  _23
REMARK   11  A    between atoms: _28  and  _30
REMARK   12  A    between atoms: _30  and  _31
REMARK   13  A    between atoms: _30  and  _33
REMARK   14  A    between atoms: _33  and  _34
REMARK   15  A    between atoms: _39  and  _41
REMARK   16  A    between atoms: _41  and  _42
REMARK   17  A    between atoms: _41  and  _44
REMARK   18  A    between atoms: _44  and  _45
REMARK   19  A    between atoms: _48  and  _50
REMARK   20  A    between atoms: _50  and  _51
REMARK   21  A    between atoms: _50  and  _53
REMARK   22  A    between atoms: _53  and  _54
REMARK   23  A    between atoms: _64  and  _66
REMARK   24  A    between atoms: _66  and  _67
REMARK   25  A    between atoms: _66  and  _69
REMARK   26  A    between atoms: _69  and  _70
REMARK   27  A    between atoms: _72  and  _74
REMARK   28  A    between atoms: _74  and  _75
REMARK   29  A    between atoms: _74  and  _77
REMARK   30  A    between atoms: _77  and  _78
REMARK   31  A    between atoms: _83  and  _85
REMARK   32  A    between atoms: _85  and  _86
REMARK   33  A    between atoms: _85  and  _88
REMARK   34  A    between atoms: _88  and  _89
REMARK   35  A    between atoms: _94  and  _96
REMARK   36  A    between atoms: _96  and  _97
REMARK   37  A    between atoms: _96  and  _99
REMARK   38  A    between atoms: _99  and  _100
REMARK   39  A    between atoms: _105  and  _107
REMARK   40  A    between atoms: _107  and  _108
REMARK   41  A    between atoms: _107  and  _110
REMARK   42  A    between atoms: _110  and  _111
REMARK   43  A    between atoms: _121  and  _123
REMARK   44  A    between atoms: _123  and  _124
REMARK   45  A    between atoms: _123  and  _126
REMARK   46  A    between atoms: _126  and  _127
REMARK   47  A    between atoms: _137  and  _139
REMARK   48  A    between atoms: _139  and  _140
REMARK   49  A    between atoms: _139  and  _142
REMARK   50  A    between atoms: _142  and  _143
REMARK   51  A    between atoms: _143  and  _144
REMARK   52  A    between atoms: _146  and  _148
REMARK   53  A    between atoms: _148  and  _149
REMARK   54  A    between atoms: _148  and  _151
REMARK   55  A    between atoms: _151  and  _152
REMARK   56  A    between atoms: _157  and  _159
REMARK   57  A    between atoms: _159  and  _160
REMARK   58  A    between atoms: _159  and  _162
REMARK   59  A    between atoms: _162  and  _163
REMARK   60  A    between atoms: _173  and  _175
REMARK   61  A    between atoms: _175  and  _176
REMARK   62  A    between atoms: _178  and  _180
REMARK   63  A    between atoms: _180  and  _181
REMARK   64  A    between atoms: _184  and  _186
REMARK   65  A    between atoms: _186  and  _187
REMARK   66  A    between atoms: _186  and  _189
REMARK   67  A    between atoms: _189  and  _190
REMARK   68  A    between atoms: _193  and  _195
REMARK   69  A    between atoms: _195  and  _196
REMARK   70  A    between atoms: _195  and  _198
REMARK   71  A    between atoms: _198  and  _199
REMARK   72  A    between atoms: _204  and  _205
REMARK   73  A    between atoms: _207  and  _209
REMARK   74  A    between atoms: _209  and  _210
REMARK   75  A    between atoms: _209  and  _212
REMARK   76  A    between atoms: _212  and  _213
REMARK   77  A    between atoms: _218  and  _220
REMARK   78  A    between atoms: _220  and  _221
REMARK   79  A    between atoms: _224  and  _226
REMARK   80  A    between atoms: _226  and  _227
REMARK   81  A    between atoms: _226  and  _229
REMARK   82  A    between atoms: _229  and  _230
REMARK   83  A    between atoms: _233  and  _235
REMARK   84  A    between atoms: _235  and  _236
REMARK   85  A    between atoms: _235  and  _238
REMARK   86  A    between atoms: _238  and  _239
REMARK   87  A    between atoms: _245  and  _247
REMARK   88  A    between atoms: _247  and  _248
REMARK   89  A    between atoms: _247  and  _250
REMARK   90  A    between atoms: _250  and  _251
REMARK   91  A    between atoms: _256  and  _257
REMARK   92  A    between atoms: _259  and  _261
REMARK   93  A    between atoms: _261  and  _262
REMARK   94  A    between atoms: _264  and  _266
REMARK   95  A    between atoms: _266  and  _267
REMARK   96  A    between atoms: _269  and  _271
REMARK   97  A    between atoms: _271  and  _272
REMARK   98  A    between atoms: _271  and  _274
REMARK   99  A    between atoms: _274  and  _275
REMARK  100  A    between atoms: _280  and  _282
REMARK  101  A    between atoms: _282  and  _283
REMARK  102  A    between atoms: _285  and  _287
REMARK  103  A    between atoms: _287  and  _288
REMARK  104  A    between atoms: _287  and  _290
REMARK  105  A    between atoms: _290  and  _291
REMARK  106  A    between atoms: _296  and  _297
REMARK  107  A    between atoms: _299  and  _301
REMARK  108  A    between atoms: _301  and  _302
REMARK  109  A    between atoms: _301  and  _304
REMARK  110  A    between atoms: _304  and  _305
REMARK  111  A    between atoms: _310  and  _311
REMARK  112  A    between atoms: _313  and  _315
REMARK  113  A    between atoms: _315  and  _316
REMARK                            x       y       z     vdW  Elec       q    Type
REMARK                         _______ _______ _______ _____ _____    ______ ____
ROOT
ATOM      1  O   HOH     1      12.391  -3.383  67.345  0.00  0.00    +0.000 OA
ENDROOT
TORSDOF 0
REMARK  Name = ../refined-set-2016/1mfa/1mfa_pocket.pdb
REMARK  113 active torsions:
REMARK  status: ('A' for Active; 'I' for Inactive)
REMARK    1  A    between atoms: _1  and  _3
REMARK    2  A    between atoms: _3  and  _4
REMARK    3  A    between atoms: _6  and  _8
REMARK    4  A    between atoms: _8  and  _9
REMARK    5  A    between atoms: _8  and  _11
REMARK    6  A    between atoms: _11  and  _12
REMARK    7  A    between atoms: _17  and  _19
REMARK    8  A    between atoms: _19  and  _20
REMARK    9  A    between atoms: _19  and  _22
REMARK   10  A    between atoms: _22  and  _23
REMARK   11  A    between atoms: _28  and  _30
REMARK   12  A    between atoms: _30  and  _31
REMARK   13  A    between atoms: _30  and  _33
REMARK   14  A    between atoms: _33  and  _34
REMARK   15  A    between atoms: _39  and  _41
REMARK   16  A    between atoms: _41  and  _42
REMARK   17  A    between atoms: _41  and  _44
REMARK   18  A    between atoms: _44  and  _45
REMARK   19  A    between atoms: _48  and  _50
REMARK   20  A    between atoms: _50  and  _51
REMARK   21  A    between atoms: _50  and  _53
REMARK   22  A    between atoms: _53  and  _54
REMARK   23  A    between atoms: _64  and  _66
REMARK   24  A    between atoms: _66  and  _67
REMARK   25  A    between atoms: _66  and  _69
REMARK   26  A    between atoms: _69  and  _70
REMARK   27  A    between atoms: _72  and  _74
REMARK   28  A    between atoms: _74  and  _75
REMARK   29  A    between atoms: _74  and  _77
REMARK   30  A    between atoms: _77  and  _78
REMARK   31  A    between atoms: _83  and  _85
REMARK   32  A    between atoms: _85  and  _86
REMARK   33  A    between atoms: _85  and  _88
REMARK   34  A    between atoms: _88  and  _89
REMARK   35  A    between atoms: _94  and  _96
REMARK   36  A    between atoms: _96  and  _97
REMARK   37  A    between atoms: _96  and  _99
REMARK   38  A    between atoms: _99  and  _100
REMARK   39  A    between atoms: _105  and  _107
REMARK   40  A    between atoms: _107  and  _108
REMARK   41  A    between atoms: _107  and  _110
REMARK   42  A    between atoms: _110  and  _111
REMARK   43  A    between atoms: _121  and  _123
REMARK   44  A    between atoms: _123  and  _124
REMARK   45  A    between atoms: _123  and  _126
REMARK   46  A    between atoms: _126  and  _127
REMARK   47  A    between atoms: _137  and  _139
REMARK   48  A    between atoms: _139  and  _140
REMARK   49  A    between atoms: _139  and  _142
REMARK   50  A    between atoms: _142  and  _143
REMARK   51  A    between atoms: _143  and  _144
REMARK   52  A    between atoms: _146  and  _148
REMARK   53  A    between atoms: _148  and  _149
REMARK   54  A    between atoms: _148  and  _151
REMARK   55  A    between atoms: _151  and  _152
REMARK   56  A    between atoms: _157  and  _159
REMARK   57  A    between atoms: _159  and  _160
REMARK   58  A    between atoms: _159  and  _162
REMARK   59  A    between atoms: _162  and  _163
REMARK   60  A    between atoms: _173  and  _175
REMARK   61  A    between atoms: _175  and  _176
REMARK   62  A    between atoms: _178  and  _180
REMARK   63  A    between atoms: _180  and  _181
REMARK   64  A    between atoms: _184  and  _186
REMARK   65  A    between atoms: _186  and  _187
REMARK   66  A    between atoms: _186  and  _189
REMARK   67  A    between atoms: _189  and  _190
REMARK   68  A    between atoms: _193  and  _195
REMARK   69  A    between atoms: _195  and  _196
REMARK   70  A    between atoms: _195  and  _198
REMARK   71  A    between atoms: _198  and  _199
REMARK   72  A    between atoms: _204  and  _205
REMARK   73  A    between atoms: _207  and  _209
REMARK   74  A    between atoms: _209  and  _210
REMARK   75  A    between atoms: _209  and  _212
REMARK   76  A    between atoms: _212  and  _213
REMARK   77  A    between atoms: _218  and  _220
REMARK   78  A    between atoms: _220  and  _221
REMARK   79  A    between atoms: _224  and  _226
REMARK   80  A    between atoms: _226  and  _227
REMARK   81  A    between atoms: _226  and  _229
REMARK   82  A    between atoms: _229  and  _230
REMARK   83  A    between atoms: _233  and  _235
REMARK   84  A    between atoms: _235  and  _236
REMARK   85  A    between atoms: _235  and  _238
REMARK   86  A    between atoms: _238  and  _239
REMARK   87  A    between atoms: _245  and  _247
REMARK   88  A    between atoms: _247  and  _248
REMARK   89  A    between atoms: _247  and  _250
REMARK   90  A    between atoms: _250  and  _251
REMARK   91  A    between atoms: _256  and  _257
REMARK   92  A    between atoms: _259  and  _261
REMARK   93  A    between atoms: _261  and  _262
REMARK   94  A    between atoms: _264  and  _266
REMARK   95  A    between atoms: _266  and  _267
REMARK   96  A    between atoms: _269  and  _271
REMARK   97  A    between atoms: _271  and  _272
REMARK   98  A    between atoms: _271  and  _274
REMARK   99  A    between atoms: _274  and  _275
REMARK  100  A    between atoms: _280  and  _282
REMARK  101  A    between atoms: _282  and  _283
REMARK  102  A    between atoms: _285  and  _287
REMARK  103  A    between atoms: _287  and  _288
REMARK  104  A    between atoms: _287  and  _290
REMARK  105  A    between atoms: _290  and  _291
REMARK  106  A    between atoms: _296  and  _297
REMARK  107  A    between atoms: _299  and  _301
REMARK  108  A    between atoms: _301  and  _302
REMARK  109  A    between atoms: _301  and  _304
REMARK  110  A    between atoms: _304  and  _305
REMARK  111  A    between atoms: _310  and  _311
REMARK  112  A    between atoms: _313  and  _315
REMARK  113  A    between atoms: _315  and  _316
REMARK                            x       y       z     vdW  Elec       q    Type
REMARK                         _______ _______ _______ _____ _____    ______ ____
ROOT
ATOM      1  O   HOH     1      22.169 -12.904  61.826  0.00  0.00    +0.000 OA
ENDROOT
TORSDOF 0
REMARK  Name = ../refined-set-2016/1mfa/1mfa_pocket.pdb
REMARK  113 active torsions:
REMARK  status: ('A' for Active; 'I' for Inactive)
REMARK    1  A    between atoms: _1  and  _3
REMARK    2  A    between atoms: _3  and  _4
REMARK    3  A    between atoms: _6  and  _8
REMARK    4  A    between atoms: _8  and  _9
REMARK    5  A    between atoms: _8  and  _11
REMARK    6  A    between atoms: _11  and  _12
REMARK    7  A    between atoms: _17  and  _19
REMARK    8  A    between atoms: _19  and  _20
REMARK    9  A    between atoms: _19  and  _22
REMARK   10  A    between atoms: _22  and  _23
REMARK   11  A    between atoms: _28  and  _30
REMARK   12  A    between atoms: _30  and  _31
REMARK   13  A    between atoms: _30  and  _33
REMARK   14  A    between atoms: _33  and  _34
REMARK   15  A    between atoms: _39  and  _41
REMARK   16  A    between atoms: _41  and  _42
REMARK   17  A    between atoms: _41  and  _44
REMARK   18  A    between atoms: _44  and  _45
REMARK   19  A    between atoms: _48  and  _50
REMARK   20  A    between atoms: _50  and  _51
REMARK   21  A    between atoms: _50  and  _53
REMARK   22  A    between atoms: _53  and  _54
REMARK   23  A    between atoms: _64  and  _66
REMARK   24  A    between atoms: _66  and  _67
REMARK   25  A    between atoms: _66  and  _69
REMARK   26  A    between atoms: _69  and  _70
REMARK   27  A    between atoms: _72  and  _74
REMARK   28  A    between atoms: _74  and  _75
REMARK   29  A    between atoms: _74  and  _77
REMARK   30  A    between atoms: _77  and  _78
REMARK   31  A    between atoms: _83  and  _85
REMARK   32  A    between atoms: _85  and  _86
REMARK   33  A    between atoms: _85  and  _88
REMARK   34  A    between atoms: _88  and  _89
REMARK   35  A    between atoms: _94  and  _96
REMARK   36  A    between atoms: _96  and  _97
REMARK   37  A    between atoms: _96  and  _99
REMARK   38  A    between atoms: _99  and  _100
REMARK   39  A    between atoms: _105  and  _107
REMARK   40  A    between atoms: _107  and  _108
REMARK   41  A    between atoms: _107  and  _110
REMARK   42  A    between atoms: _110  and  _111
REMARK   43  A    between atoms: _121  and  _123
REMARK   44  A    between atoms: _123  and  _124
REMARK   45  A    between atoms: _123  and  _126
REMARK   46  A    between atoms: _126  and  _127
REMARK   47  A    between atoms: _137  and  _139
REMARK   48  A    between atoms: _139  and  _140
REMARK   49  A    between atoms: _139  and  _142
REMARK   50  A    between atoms: _142  and  _143
REMARK   51  A    between atoms: _143  and  _144
REMARK   52  A    between atoms: _146  and  _148
REMARK   53  A    between atoms: _148  and  _149
REMARK   54  A    between atoms: _148  and  _151
REMARK   55  A    between atoms: _151  and  _152
REMARK   56  A    between atoms: _157  and  _159
REMARK   57  A    between atoms: _159  and  _160
REMARK   58  A    between atoms: _159  and  _162
REMARK   59  A    between atoms: _162  and  _163
REMARK   60  A    between atoms: _173  and  _175
REMARK   61  A    between atoms: _175  and  _176
REMARK   62  A    between atoms: _178  and  _180
REMARK   63  A    between atoms: _180  and  _181
REMARK   64  A    between atoms: _184  and  _186
REMARK   65  A    between atoms: _186  and  _187
REMARK   66  A    between atoms: _186  and  _189
REMARK   67  A    between atoms: _189  and  _190
REMARK   68  A    between atoms: _193  and  _195
REMARK   69  A    between atoms: _195  and  _196
REMARK   70  A    between atoms: _195  and  _198
REMARK   71  A    between atoms: _198  and  _199
REMARK   72  A    between atoms: _204  and  _205
REMARK   73  A    between atoms: _207  and  _209
REMARK   74  A    between atoms: _209  and  _210
REMARK   75  A    between atoms: _209  and  _212
REMARK   76  A    between atoms: _212  and  _213
REMARK   77  A    between atoms: _218  and  _220
REMARK   78  A    between atoms: _220  and  _221
REMARK   79  A    between atoms: _224  and  _226
REMARK   80  A    between atoms: _226  and  _227
REMARK   81  A    between atoms: _226  and  _229
REMARK   82  A    between atoms: _229  and  _230
REMARK   83  A    between atoms: _233  and  _235
REMARK   84  A    between atoms: _235  and  _236
REMARK   85  A    between atoms: _235  and  _238
REMARK   86  A    between atoms: _238  and  _239
REMARK   87  A    between atoms: _245  and  _247
REMARK   88  A    between atoms: _247  and  _248
REMARK   89  A    between atoms: _247  and  _250
REMARK   90  A    between atoms: _250  and  _251
REMARK   91  A    between atoms: _256  and  _257
REMARK   92  A    between atoms: _259  and  _261
REMARK   93  A    between atoms: _261  and  _262
REMARK   94  A    between atoms: _264  and  _266
REMARK   95  A    between atoms: _266  and  _267
REMARK   96  A    between atoms: _269  and  _271
REMARK   97  A    between atoms: _271  and  _272
REMARK   98  A    between atoms: _271  and  _274
REMARK   99  A    between atoms: _274  and  _275
REMARK  100  A    between atoms: _280  and  _282
REMARK  101  A    between atoms: _282  and  _283
REMARK  102  A    between atoms: _285  and  _287
REMARK  103  A    between atoms: _287  and  _288
REMARK  104  A    between atoms: _287  and  _290
REMARK  105  A    between atoms: _290  and  _291
REMARK  106  A    between atoms: _296  and  _297
REMARK  107  A    between atoms: _299  and  _301
REMARK  108  A    between atoms: _301  and  _302
REMARK  109  A    between atoms: _301  and  _304
REMARK  110  A    between atoms: _304  and  _305
REMARK  111  A    between atoms: _310  and  _311
REMARK  112  A    between atoms: _313  and  _315
REMARK  113  A    between atoms: _315  and  _316
REMARK                            x       y       z     vdW  Elec       q    Type
REMARK                         _______ _______ _______ _____ _____    ______ ____
ROOT
ATOM      1  O   HOH     1      11.925  -1.875  70.634  0.00  0.00    +0.000 OA
ENDROOT
TORSDOF 0
REMARK  Name = ../refined-set-2016/1mfa/1mfa_pocket.pdb
REMARK  113 active torsions:
REMARK  status: ('A' for Active; 'I' for Inactive)
REMARK    1  A    between atoms: _1  and  _3
REMARK    2  A    between atoms: _3  and  _4
REMARK    3  A    between atoms: _6  and  _8
REMARK    4  A    between atoms: _8  and  _9
REMARK    5  A    between atoms: _8  and  _11
REMARK    6  A    between atoms: _11  and  _12
REMARK    7  A    between atoms: _17  and  _19
REMARK    8  A    between atoms: _19  and  _20
REMARK    9  A    between atoms: _19  and  _22
REMARK   10  A    between atoms: _22  and  _23
REMARK   11  A    between atoms: _28  and  _30
REMARK   12  A    between atoms: _30  and  _31
REMARK   13  A    between atoms: _30  and  _33
REMARK   14  A    between atoms: _33  and  _34
REMARK   15  A    between atoms: _39  and  _41
REMARK   16  A    between atoms: _41  and  _42
REMARK   17  A    between atoms: _41  and  _44
REMARK   18  A    between atoms: _44  and  _45
REMARK   19  A    between atoms: _48  and  _50
REMARK   20  A    between atoms: _50  and  _51
REMARK   21  A    between atoms: _50  and  _53
REMARK   22  A    between atoms: _53  and  _54
REMARK   23  A    between atoms: _64  and  _66
REMARK   24  A    between atoms: _66  and  _67
REMARK   25  A    between atoms: _66  and  _69
REMARK   26  A    between atoms: _69  and  _70
REMARK   27  A    between atoms: _72  and  _74
REMARK   28  A    between atoms: _74  and  _75
REMARK   29  A    between atoms: _74  and  _77
REMARK   30  A    between atoms: _77  and  _78
REMARK   31  A    between atoms: _83  and  _85
REMARK   32  A    between atoms: _85  and  _86
REMARK   33  A    between atoms: _85  and  _88
REMARK   34  A    between atoms: _88  and  _89
REMARK   35  A    between atoms: _94  and  _96
REMARK   36  A    between atoms: _96  and  _97
REMARK   37  A    between atoms: _96  and  _99
REMARK   38  A    between atoms: _99  and  _100
REMARK   39  A    between atoms: _105  and  _107
REMARK   40  A    between atoms: _107  and  _108
REMARK   41  A    between atoms: _107  and  _110
REMARK   42  A    between atoms: _110  and  _111
REMARK   43  A    between atoms: _121  and  _123
REMARK   44  A    between atoms: _123  and  _124
REMARK   45  A    between atoms: _123  and  _126
REMARK   46  A    between atoms: _126  and  _127
REMARK   47  A    between atoms: _137  and  _139
REMARK   48  A    between atoms: _139  and  _140
REMARK   49  A    between atoms: _139  and  _142
REMARK   50  A    between atoms: _142  and  _143
REMARK   51  A    between atoms: _143  and  _144
REMARK   52  A    between atoms: _146  and  _148
REMARK   53  A    between atoms: _148  and  _149
REMARK   54  A    between atoms: _148  and  _151
REMARK   55  A    between atoms: _151  and  _152
REMARK   56  A    between atoms: _157  and  _159
REMARK   57  A    between atoms: _159  and  _160
REMARK   58  A    between atoms: _159  and  _162
REMARK   59  A    between atoms: _162  and  _163
REMARK   60  A    between atoms: _173  and  _175
REMARK   61  A    between atoms: _175  and  _176
REMARK   62  A    between atoms: _178  and  _180
REMARK   63  A    between atoms: _180  and  _181
REMARK   64  A    between atoms: _184  and  _186
REMARK   65  A    between atoms: _186  and  _187
REMARK   66  A    between atoms: _186  and  _189
REMARK   67  A    between atoms: _189  and  _190
REMARK   68  A    between atoms: _193  and  _195
REMARK   69  A    between atoms: _195  and  _196
REMARK   70  A    between atoms: _195  and  _198
REMARK   71  A    between atoms: _198  and  _199
REMARK   72  A    between atoms: _204  and  _205
REMARK   73  A    between atoms: _207  and  _209
REMARK   74  A    between atoms: _209  and  _210
REMARK   75  A    between atoms: _209  and  _212
REMARK   76  A    between atoms: _212  and  _213
REMARK   77  A    between atoms: _218  and  _220
REMARK   78  A    between atoms: _220  and  _221
REMARK   79  A    between atoms: _224  and  _226
REMARK   80  A    between atoms: _226  and  _227
REMARK   81  A    between atoms: _226  and  _229
REMARK   82  A    between atoms: _229  and  _230
REMARK   83  A    between atoms: _233  and  _235
REMARK   84  A    between atoms: _235  and  _236
REMARK   85  A    between atoms: _235  and  _238
REMARK   86  A    between atoms: _238  and  _239
REMARK   87  A    between atoms: _245  and  _247
REMARK   88  A    between atoms: _247  and  _248
REMARK   89  A    between atoms: _247  and  _250
REMARK   90  A    between atoms: _250  and  _251
REMARK   91  A    between atoms: _256  and  _257
REMARK   92  A    between atoms: _259  and  _261
REMARK   93  A    between atoms: _261  and  _262
REMARK   94  A    between atoms: _264  and  _266
REMARK   95  A    between atoms: _266  and  _267
REMARK   96  A    between atoms: _269  and  _271
REMARK   97  A    between atoms: _271  and  _272
REMARK   98  A    between atoms: _271  and  _274
REMARK   99  A    between atoms: _274  and  _275
REMARK  100  A    between atoms: _280  and  _282
REMARK  101  A    between atoms: _282  and  _283
REMARK  102  A    between atoms: _285  and  _287
REMARK  103  A    between atoms: _287  and  _288
REMARK  104  A    between atoms: _287  and  _290
REMARK  105  A    between atoms: _290  and  _291
REMARK  106  A    between atoms: _296  and  _297
REMARK  107  A    between atoms: _299  and  _301
REMARK  108  A    between atoms: _301  and  _302
REMARK  109  A    between atoms: _301  and  _304
REMARK  110  A    between atoms: _304  and  _305
REMARK  111  A    between atoms: _310  and  _311
REMARK  112  A    between atoms: _313  and  _315
REMARK  113  A    between atoms: _315  and  _316
REMARK                            x       y       z     vdW  Elec       q    Type
REMARK                         _______ _______ _______ _____ _____    ______ ____
ROOT
ATOM      1  O   HOH     1      20.941 -10.090  67.170  0.00  0.00    +0.000 OA
ENDROOT
TORSDOF 0
REMARK  Name = ../refined-set-2016/1mfa/1mfa_pocket.pdb
REMARK  113 active torsions:
REMARK  status: ('A' for Active; 'I' for Inactive)
REMARK    1  A    between atoms: _1  and  _3
REMARK    2  A    between atoms: _3  and  _4
REMARK    3  A    between atoms: _6  and  _8
REMARK    4  A    between atoms: _8  and  _9
REMARK    5  A    between atoms: _8  and  _11
REMARK    6  A    between atoms: _11  and  _12
REMARK    7  A    between atoms: _17  and  _19
REMARK    8  A    between atoms: _19  and  _20
REMARK    9  A    between atoms: _19  and  _22
REMARK   10  A    between atoms: _22  and  _23
REMARK   11  A    between atoms: _28  and  _30
REMARK   12  A    between atoms: _30  and  _31
REMARK   13  A    between atoms: _30  and  _33
REMARK   14  A    between atoms: _33  and  _34
REMARK   15  A    between atoms: _39  and  _41
REMARK   16  A    between atoms: _41  and  _42
REMARK   17  A    between atoms: _41  and  _44
REMARK   18  A    between atoms: _44  and  _45
REMARK   19  A    between atoms: _48  and  _50
REMARK   20  A    between atoms: _50  and  _51
REMARK   21  A    between atoms: _50  and  _53
REMARK   22  A    between atoms: _53  and  _54
REMARK   23  A    between atoms: _64  and  _66
REMARK   24  A    between atoms: _66  and  _67
REMARK   25  A    between atoms: _66  and  _69
REMARK   26  A    between atoms: _69  and  _70
REMARK   27  A    between atoms: _72  and  _74
REMARK   28  A    between atoms: _74  and  _75
REMARK   29  A    between atoms: _74  and  _77
REMARK   30  A    between atoms: _77  and  _78
REMARK   31  A    between atoms: _83  and  _85
REMARK   32  A    between atoms: _85  and  _86
REMARK   33  A    between atoms: _85  and  _88
REMARK   34  A    between atoms: _88  and  _89
REMARK   35  A    between atoms: _94  and  _96
REMARK   36  A    between atoms: _96  and  _97
REMARK   37  A    between atoms: _96  and  _99
REMARK   38  A    between atoms: _99  and  _100
REMARK   39  A    between atoms: _105  and  _107
REMARK   40  A    between atoms: _107  and  _108
REMARK   41  A    between atoms: _107  and  _110
REMARK   42  A    between atoms: _110  and  _111
REMARK   43  A    between atoms: _121  and  _123
REMARK   44  A    between atoms: _123  and  _124
REMARK   45  A    between atoms: _123  and  _126
REMARK   46  A    between atoms: _126  and  _127
REMARK   47  A    between atoms: _137  and  _139
REMARK   48  A    between atoms: _139  and  _140
REMARK   49  A    between atoms: _139  and  _142
REMARK   50  A    between atoms: _142  and  _143
REMARK   51  A    between atoms: _143  and  _144
REMARK   52  A    between atoms: _146  and  _148
REMARK   53  A    between atoms: _148  and  _149
REMARK   54  A    between atoms: _148  and  _151
REMARK   55  A    between atoms: _151  and  _152
REMARK   56  A    between atoms: _157  and  _159
REMARK   57  A    between atoms: _159  and  _160
REMARK   58  A    between atoms: _159  and  _162
REMARK   59  A    between atoms: _162  and  _163
REMARK   60  A    between atoms: _173  and  _175
REMARK   61  A    between atoms: _175  and  _176
REMARK   62  A    between atoms: _178  and  _180
REMARK   63  A    between atoms: _180  and  _181
REMARK   64  A    between atoms: _184  and  _186
REMARK   65  A    between atoms: _186  and  _187
REMARK   66  A    between atoms: _186  and  _189
REMARK   67  A    between atoms: _189  and  _190
REMARK   68  A    between atoms: _193  and  _195
REMARK   69  A    between atoms: _195  and  _196
REMARK   70  A    between atoms: _195  and  _198
REMARK   71  A    between atoms: _198  and  _199
REMARK   72  A    between atoms: _204  and  _205
REMARK   73  A    between atoms: _207  and  _209
REMARK   74  A    between atoms: _209  and  _210
REMARK   75  A    between atoms: _209  and  _212
REMARK   76  A    between atoms: _212  and  _213
REMARK   77  A    between atoms: _218  and  _220
REMARK   78  A    between atoms: _220  and  _221
REMARK   79  A    between atoms: _224  and  _226
REMARK   80  A    between atoms: _226  and  _227
REMARK   81  A    between atoms: _226  and  _229
REMARK   82  A    between atoms: _229  and  _230
REMARK   83  A    between atoms: _233  and  _235
REMARK   84  A    between atoms: _235  and  _236
REMARK   85  A    between atoms: _235  and  _238
REMARK   86  A    between atoms: _238  and  _239
REMARK   87  A    between atoms: _245  and  _247
REMARK   88  A    between atoms: _247  and  _248
REMARK   89  A    between atoms: _247  and  _250
REMARK   90  A    between atoms: _250  and  _251
REMARK   91  A    between atoms: _256  and  _257
REMARK   92  A    between atoms: _259  and  _261
REMARK   93  A    between atoms: _261  and  _262
REMARK   94  A    between atoms: _264  and  _266
REMARK   95  A    between atoms: _266  and  _267
REMARK   96  A    between atoms: _269  and  _271
REMARK   97  A    between atoms: _271  and  _272
REMARK   98  A    between atoms: _271  and  _274
REMARK   99  A    between atoms: _274  and  _275
REMARK  100  A    between atoms: _280  and  _282
REMARK  101  A    between atoms: _282  and  _283
REMARK  102  A    between atoms: _285  and  _287
REMARK  103  A    between atoms: _287  and  _288
REMARK  104  A    between atoms: _287  and  _290
REMARK  105  A    between atoms: _290  and  _291
REMARK  106  A    between atoms: _296  and  _297
REMARK  107  A    between atoms: _299  and  _301
REMARK  108  A    between atoms: _301  and  _302
REMARK  109  A    between atoms: _301  and  _304
REMARK  110  A    between atoms: _304  and  _305
REMARK  111  A    between atoms: _310  and  _311
REMARK  112  A    between atoms: _313  and  _315
REMARK  113  A    between atoms: _315  and  _316
REMARK                            x       y       z     vdW  Elec       q    Type
REMARK                         _______ _______ _______ _____ _____    ______ ____
ROOT
ATOM      1  O   HOH     1      14.379  -2.185  69.358  0.00  0.00    +0.000 OA
ENDROOT
TORSDOF 0
REMARK  Name = ../refined-set-2016/1mfa/1mfa_pocket.pdb
REMARK  113 active torsions:
REMARK  status: ('A' for Active; 'I' for Inactive)
REMARK    1  A    between atoms: _1  and  _3
REMARK    2  A    between atoms: _3  and  _4
REMARK    3  A    between atoms: _6  and  _8
REMARK    4  A    between atoms: _8  and  _9
REMARK    5  A    between atoms: _8  and  _11
REMARK    6  A    between atoms: _11  and  _12
REMARK    7  A    between atoms: _17  and  _19
REMARK    8  A    between atoms: _19  and  _20
REMARK    9  A    between atoms: _19  and  _22
REMARK   10  A    between atoms: _22  and  _23
REMARK   11  A    between atoms: _28  and  _30
REMARK   12  A    between atoms: _30  and  _31
REMARK   13  A    between atoms: _30  and  _33
REMARK   14  A    between atoms: _33  and  _34
REMARK   15  A    between atoms: _39  and  _41
REMARK   16  A    between atoms: _41  and  _42
REMARK   17  A    between atoms: _41  and  _44
REMARK   18  A    between atoms: _44  and  _45
REMARK   19  A    between atoms: _48  and  _50
REMARK   20  A    between atoms: _50  and  _51
REMARK   21  A    between atoms: _50  and  _53
REMARK   22  A    between atoms: _53  and  _54
REMARK   23  A    between atoms: _64  and  _66
REMARK   24  A    between atoms: _66  and  _67
REMARK   25  A    between atoms: _66  and  _69
REMARK   26  A    between atoms: _69  and  _70
REMARK   27  A    between atoms: _72  and  _74
REMARK   28  A    between atoms: _74  and  _75
REMARK   29  A    between atoms: _74  and  _77
REMARK   30  A    between atoms: _77  and  _78
REMARK   31  A    between atoms: _83  and  _85
REMARK   32  A    between atoms: _85  and  _86
REMARK   33  A    between atoms: _85  and  _88
REMARK   34  A    between atoms: _88  and  _89
REMARK   35  A    between atoms: _94  and  _96
REMARK   36  A    between atoms: _96  and  _97
REMARK   37  A    between atoms: _96  and  _99
REMARK   38  A    between atoms: _99  and  _100
REMARK   39  A    between atoms: _105  and  _107
REMARK   40  A    between atoms: _107  and  _108
REMARK   41  A    between atoms: _107  and  _110
REMARK   42  A    between atoms: _110  and  _111
REMARK   43  A    between atoms: _121  and  _123
REMARK   44  A    between atoms: _123  and  _124
REMARK   45  A    between atoms: _123  and  _126
REMARK   46  A    between atoms: _126  and  _127
REMARK   47  A    between atoms: _137  and  _139
REMARK   48  A    between atoms: _139  and  _140
REMARK   49  A    between atoms: _139  and  _142
REMARK   50  A    between atoms: _142  and  _143
REMARK   51  A    between atoms: _143  and  _144
REMARK   52  A    between atoms: _146  and  _148
REMARK   53  A    between atoms: _148  and  _149
REMARK   54  A    between atoms: _148  and  _151
REMARK   55  A    between atoms: _151  and  _152
REMARK   56  A    between atoms: _157  and  _159
REMARK   57  A    between atoms: _159  and  _160
REMARK   58  A    between atoms: _159  and  _162
REMARK   59  A    between atoms: _162  and  _163
REMARK   60  A    between atoms: _173  and  _175
REMARK   61  A    between atoms: _175  and  _176
REMARK   62  A    between atoms: _178  and  _180
REMARK   63  A    between atoms: _180  and  _181
REMARK   64  A    between atoms: _184  and  _186
REMARK   65  A    between atoms: _186  and  _187
REMARK   66  A    between atoms: _186  and  _189
REMARK   67  A    between atoms: _189  and  _190
REMARK   68  A    between atoms: _193  and  _195
REMARK   69  A    between atoms: _195  and  _196
REMARK   70  A    between atoms: _195  and  _198
REMARK   71  A    between atoms: _198  and  _199
REMARK   72  A    between atoms: _204  and  _205
REMARK   73  A    between atoms: _207  and  _209
REMARK   74  A    between atoms: _209  and  _210
REMARK   75  A    between atoms: _209  and  _212
REMARK   76  A    between atoms: _212  and  _213
REMARK   77  A    between atoms: _218  and  _220
REMARK   78  A    between atoms: _220  and  _221
REMARK   79  A    between atoms: _224  and  _226
REMARK   80  A    between atoms: _226  and  _227
REMARK   81  A    between atoms: _226  and  _229
REMARK   82  A    between atoms: _229  and  _230
REMARK   83  A    between atoms: _233  and  _235
REMARK   84  A    between atoms: _235  and  _236
REMARK   85  A    between atoms: _235  and  _238
REMARK   86  A    between atoms: _238  and  _239
REMARK   87  A    between atoms: _245  and  _247
REMARK   88  A    between atoms: _247  and  _248
REMARK   89  A    between atoms: _247  and  _250
REMARK   90  A    between atoms: _250  and  _251
REMARK   91  A    between atoms: _256  and  _257
REMARK   92  A    between atoms: _259  and  _261
REMARK   93  A    between atoms: _261  and  _262
REMARK   94  A    between atoms: _264  and  _266
REMARK   95  A    between atoms: _266  and  _267
REMARK   96  A    between atoms: _269  and  _271
REMARK   97  A    between atoms: _271  and  _272
REMARK   98  A    between atoms: _271  and  _274
REMARK   99  A    between atoms: _274  and  _275
REMARK  100  A    between atoms: _280  and  _282
REMARK  101  A    between atoms: _282  and  _283
REMARK  102  A    between atoms: _285  and  _287
REMARK  103  A    between atoms: _287  and  _288
REMARK  104  A    between atoms: _287  and  _290
REMARK  105  A    between atoms: _290  and  _291
REMARK  106  A    between atoms: _296  and  _297
REMARK  107  A    between atoms: _299  and  _301
REMARK  108  A    between atoms: _301  and  _302
REMARK  109  A    between atoms: _301  and  _304
REMARK  110  A    between atoms: _304  and  _305
REMARK  111  A    between atoms: _310  and  _311
REMARK  112  A    between atoms: _313  and  _315
REMARK  113  A    between atoms: _315  and  _316
REMARK                            x       y       z     vdW  Elec       q    Type
REMARK                         _______ _______ _______ _____ _____    ______ ____
ROOT
ATOM      1  O   HOH     1      17.344  -9.586  70.039  0.00  0.00    +0.000 OA
ENDROOT
TORSDOF 0
