REMARK  Name = ../refined-set-2016/4zb8/4zb8_pocket.pdb
REMARK  221 active torsions:
REMARK  status: ('A' for Active; 'I' for Inactive)
REMARK    1  A    between atoms: _1  and  _3
REMARK    2  A    between atoms: _3  and  _4
REMARK    3  A    between atoms: _3  and  _6
REMARK    4  A    between atoms: _6  and  _7
REMARK    5  A    between atoms: _12  and  _13
REMARK    6  A    between atoms: _15  and  _17
REMARK    7  A    between atoms: _17  and  _18
REMARK    8  A    between atoms: _17  and  _20
REMARK    9  A    between atoms: _20  and  _21
REMARK   10  A    between atoms: _24  and  _26
REMARK   11  A    between atoms: _26  and  _27
REMARK   12  A    between atoms: _26  and  _29
REMARK   13  A    between atoms: _29  and  _30
REMARK   14  A    between atoms: _35  and  _37
REMARK   15  A    between atoms: _37  and  _38
REMARK   16  A    between atoms: _40  and  _42
REMARK   17  A    between atoms: _42  and  _43
REMARK   18  A    between atoms: _46  and  _47
REMARK   19  A    between atoms: _52  and  _54
REMARK   20  A    between atoms: _54  and  _55
REMARK   21  A    between atoms: _54  and  _57
REMARK   22  A    between atoms: _57  and  _58
REMARK   23  A    between atoms: _63  and  _65
REMARK   24  A    between atoms: _65  and  _66
REMARK   25  A    between atoms: _68  and  _70
REMARK   26  A    between atoms: _70  and  _71
REMARK   27  A    between atoms: _70  and  _73
REMARK   28  A    between atoms: _73  and  _74
REMARK   29  A    between atoms: _84  and  _86
REMARK   30  A    between atoms: _86  and  _87
REMARK   31  A    between atoms: _86  and  _89
REMARK   32  A    between atoms: _89  and  _90
REMARK   33  A    between atoms: _90  and  _91
REMARK   34  A    between atoms: _91  and  _92
REMARK   35  A    between atoms: _92  and  _93
REMARK   36  A    between atoms: _97  and  _99
REMARK   37  A    between atoms: _99  and  _100
REMARK   38  A    between atoms: _99  and  _102
REMARK   39  A    between atoms: _105  and  _107
REMARK   40  A    between atoms: _107  and  _108
REMARK   41  A    between atoms: _107  and  _110
REMARK   42  A    between atoms: _110  and  _111
REMARK   43  A    between atoms: _114  and  _116
REMARK   44  A    between atoms: _116  and  _117
REMARK   45  A    between atoms: _116  and  _119
REMARK   46  A    between atoms: _119  and  _120
REMARK   47  A    between atoms: _126  and  _128
REMARK   48  A    between atoms: _128  and  _129
REMARK   49  A    between atoms: _128  and  _131
REMARK   50  A    between atoms: _131  and  _132
REMARK   51  A    between atoms: _137  and  _139
REMARK   52  A    between atoms: _139  and  _140
REMARK   53  A    between atoms: _139  and  _142
REMARK   54  A    between atoms: _142  and  _143
REMARK   55  A    between atoms: _143  and  _144
REMARK   56  A    between atoms: _144  and  _145
REMARK   57  A    between atoms: _145  and  _146
REMARK   58  A    between atoms: _150  and  _152
REMARK   59  A    between atoms: _152  and  _153
REMARK   60  A    between atoms: _152  and  _155
REMARK   61  A    between atoms: _155  and  _156
REMARK   62  A    between atoms: _161  and  _162
REMARK   63  A    between atoms: _164  and  _166
REMARK   64  A    between atoms: _166  and  _167
REMARK   65  A    between atoms: _166  and  _169
REMARK   66  A    between atoms: _169  and  _170
REMARK   67  A    between atoms: _175  and  _177
REMARK   68  A    between atoms: _177  and  _178
REMARK   69  A    between atoms: _177  and  _180
REMARK   70  A    between atoms: _180  and  _181
REMARK   71  A    between atoms: _186  and  _188
REMARK   72  A    between atoms: _188  and  _189
REMARK   73  A    between atoms: _191  and  _193
REMARK   74  A    between atoms: _193  and  _194
REMARK   75  A    between atoms: _193  and  _196
REMARK   76  A    between atoms: _196  and  _197
REMARK   77  A    between atoms: _197  and  _198
REMARK   78  A    between atoms: _198  and  _199
REMARK   79  A    between atoms: _208  and  _210
REMARK   80  A    between atoms: _210  and  _211
REMARK   81  A    between atoms: _210  and  _213
REMARK   82  A    between atoms: _213  and  _214
REMARK   83  A    between atoms: _218  and  _219
REMARK   84  A    between atoms: _224  and  _226
REMARK   85  A    between atoms: _226  and  _227
REMARK   86  A    between atoms: _230  and  _232
REMARK   87  A    between atoms: _232  and  _233
REMARK   88  A    between atoms: _232  and  _235
REMARK   89  A    between atoms: _235  and  _236
REMARK   90  A    between atoms: _246  and  _248
REMARK   91  A    between atoms: _248  and  _249
REMARK   92  A    between atoms: _248  and  _251
REMARK   93  A    between atoms: _251  and  _252
REMARK   94  A    between atoms: _252  and  _253
REMARK   95  A    between atoms: _256  and  _258
REMARK   96  A    between atoms: _258  and  _259
REMARK   97  A    between atoms: _258  and  _261
REMARK   98  A    between atoms: _261  and  _262
REMARK   99  A    between atoms: _264  and  _266
REMARK  100  A    between atoms: _266  and  _267
REMARK  101  A    between atoms: _266  and  _269
REMARK  102  A    between atoms: _269  and  _270
REMARK  103  A    between atoms: _275  and  _277
REMARK  104  A    between atoms: _277  and  _278
REMARK  105  A    between atoms: _281  and  _283
REMARK  106  A    between atoms: _283  and  _284
REMARK  107  A    between atoms: _283  and  _286
REMARK  108  A    between atoms: _286  and  _287
REMARK  109  A    between atoms: _290  and  _292
REMARK  110  A    between atoms: _292  and  _293
REMARK  111  A    between atoms: _292  and  _295
REMARK  112  A    between atoms: _295  and  _296
REMARK  113  A    between atoms: _299  and  _301
REMARK  114  A    between atoms: _301  and  _302
REMARK  115  A    between atoms: _301  and  _304
REMARK  116  A    between atoms: _304  and  _305
REMARK  117  A    between atoms: _305  and  _306
REMARK  118  A    between atoms: _311  and  _313
REMARK  119  A    between atoms: _313  and  _314
REMARK  120  A    between atoms: _317  and  _319
REMARK  121  A    between atoms: _319  and  _320
REMARK  122  A    between atoms: _319  and  _322
REMARK  123  A    between atoms: _322  and  _323
REMARK  124  A    between atoms: _325  and  _327
REMARK  125  A    between atoms: _327  and  _328
REMARK  126  A    between atoms: _330  and  _332
REMARK  127  A    between atoms: _332  and  _333
REMARK  128  A    between atoms: _332  and  _335
REMARK  129  A    between atoms: _335  and  _336
REMARK  130  A    between atoms: _336  and  _337
REMARK  131  A    between atoms: _342  and  _344
REMARK  132  A    between atoms: _344  and  _345
REMARK  133  A    between atoms: _348  and  _349
REMARK  134  A    between atoms: _354  and  _356
REMARK  135  A    between atoms: _356  and  _357
REMARK  136  A    between atoms: _356  and  _359
REMARK  137  A    between atoms: _359  and  _360
REMARK  138  A    between atoms: _365  and  _366
REMARK  139  A    between atoms: _368  and  _370
REMARK  140  A    between atoms: _370  and  _371
REMARK  141  A    between atoms: _370  and  _373
REMARK  142  A    between atoms: _373  and  _374
REMARK  143  A    between atoms: _379  and  _380
REMARK  144  A    between atoms: _382  and  _384
REMARK  145  A    between atoms: _384  and  _385
REMARK  146  A    between atoms: _387  and  _389
REMARK  147  A    between atoms: _389  and  _390
REMARK  148  A    between atoms: _389  and  _392
REMARK  149  A    between atoms: _392  and  _393
REMARK  150  A    between atoms: _393  and  _394
REMARK  151  A    between atoms: _399  and  _401
REMARK  152  A    between atoms: _401  and  _402
REMARK  153  A    between atoms: _405  and  _407
REMARK  154  A    between atoms: _407  and  _408
REMARK  155  A    between atoms: _411  and  _413
REMARK  156  A    between atoms: _413  and  _414
REMARK  157  A    between atoms: _413  and  _416
REMARK  158  A    between atoms: _416  and  _417
REMARK  159  A    between atoms: _427  and  _429
REMARK  160  A    between atoms: _429  and  _430
REMARK  161  A    between atoms: _429  and  _432
REMARK  162  A    between atoms: _432  and  _433
REMARK  163  A    between atoms: _439  and  _441
REMARK  164  A    between atoms: _441  and  _442
REMARK  165  A    between atoms: _441  and  _444
REMARK  166  A    between atoms: _444  and  _445
REMARK  167  A    between atoms: _450  and  _451
REMARK  168  A    between atoms: _453  and  _455
REMARK  169  A    between atoms: _455  and  _456
REMARK  170  A    between atoms: _455  and  _458
REMARK  171  A    between atoms: _458  and  _459
REMARK  172  A    between atoms: _469  and  _471
REMARK  173  A    between atoms: _471  and  _472
REMARK  174  A    between atoms: _471  and  _474
REMARK  175  A    between atoms: _474  and  _475
REMARK  176  A    between atoms: _480  and  _481
REMARK  177  A    between atoms: _483  and  _485
REMARK  178  A    between atoms: _485  and  _486
REMARK  179  A    between atoms: _485  and  _488
REMARK  180  A    between atoms: _488  and  _489
REMARK  181  A    between atoms: _495  and  _497
REMARK  182  A    between atoms: _497  and  _498
REMARK  183  A    between atoms: _501  and  _503
REMARK  184  A    between atoms: _503  and  _504
REMARK  185  A    between atoms: _503  and  _506
REMARK  186  A    between atoms: _506  and  _507
REMARK  187  A    between atoms: _509  and  _511
REMARK  188  A    between atoms: _511  and  _512
REMARK  189  A    between atoms: _514  and  _516
REMARK  190  A    between atoms: _516  and  _517
REMARK  191  A    between atoms: _516  and  _519
REMARK  192  A    between atoms: _519  and  _520
REMARK  193  A    between atoms: _520  and  _521
REMARK  194  A    between atoms: _527  and  _528
REMARK  195  A    between atoms: _533  and  _535
REMARK  196  A    between atoms: _535  and  _536
REMARK  197  A    between atoms: _535  and  _538
REMARK  198  A    between atoms: _538  and  _539
REMARK  199  A    between atoms: _544  and  _545
REMARK  200  A    between atoms: _547  and  _549
REMARK  201  A    between atoms: _549  and  _550
REMARK  202  A    between atoms: _549  and  _552
REMARK  203  A    between atoms: _552  and  _553
REMARK  204  A    between atoms: _553  and  _554
REMARK  205  A    between atoms: _554  and  _555
REMARK  206  A    between atoms: _564  and  _566
REMARK  207  A    between atoms: _566  and  _567
REMARK  208  A    between atoms: _566  and  _569
REMARK  209  A    between atoms: _569  and  _570
REMARK  210  A    between atoms: _575  and  _576
REMARK  211  A    between atoms: _578  and  _580
REMARK  212  A    between atoms: _580  and  _581
REMARK  213  A    between atoms: _580  and  _583
REMARK  214  A    between atoms: _583  and  _584
REMARK  215  A    between atoms: _584  and  _585
REMARK  216  A    between atoms: _588  and  _590
REMARK  217  A    between atoms: _590  and  _591
REMARK  218  A    between atoms: _590  and  _593
REMARK  219  A    between atoms: _593  and  _594
REMARK  220  A    between atoms: _594  and  _595
REMARK  221  A    between atoms: _595  and  _596
REMARK                            x       y       z     vdW  Elec       q    Type
REMARK                         _______ _______ _______ _____ _____    ______ ____
ROOT
ATOM      1  CA  THR A   2     -11.914  11.405 -14.409  0.00  0.00    +0.176 C 
ENDROOT
BRANCH   1   4
ATOM      2  C   TYR A   1     -13.625  12.606 -13.136  0.00  0.00    +0.239 C 
ATOM      3  O   TYR A   1     -13.844  11.673 -12.370  0.00  0.00    -0.274 OA
ATOM      4  N   THR A   2     -12.684  12.591 -14.074  0.00  0.00    -0.295 N 
ATOM      5  H   THR A   2     -12.489  13.471 -14.594  0.00  0.00    +0.150 HD
BRANCH   2   6
ATOM      6  CA  TYR A   1     -14.480  13.870 -13.091  0.00  0.00    +0.149 C 
BRANCH   6   7
ATOM      7  N   TYR A   1     -15.887  13.530 -13.207  0.00  0.00    -0.238 NA
ATOM      8  H   TYR A   1     -16.480  13.507 -12.353  0.00  0.00    +0.142 HD
ENDBRANCH   6   7
BRANCH   6   9
ATOM      9  CB  TYR A   1     -14.225  14.697 -11.830  0.00  0.00    +0.053 C 
BRANCH   9  10
ATOM     10  CG  TYR A   1     -14.833  16.074 -11.923  0.00  0.00    -0.020 A 
ATOM     11  CD2 TYR A   1     -16.139  16.304 -11.523  0.00  0.00    -0.001 A 
ATOM     12  CE2 TYR A   1     -16.705  17.559 -11.632  0.00  0.00    +0.036 A 
ATOM     13  CZ  TYR A   1     -15.964  18.598 -12.151  0.00  0.00    +0.134 A 
ATOM     14  CE1 TYR A   1     -14.666  18.392 -12.556  0.00  0.00    +0.036 A 
ATOM     15  CD1 TYR A   1     -14.113  17.134 -12.452  0.00  0.00    -0.001 A 
BRANCH  13  16
ATOM     16  OH  TYR A   1     -16.511  19.848 -12.257  0.00  0.00    -0.506 OA
ATOM     17  HH  TYR A   1     -16.774  20.169 -11.358  0.00  0.00    +0.292 HD
ENDBRANCH  13  16
ENDBRANCH   9  10
ENDBRANCH   6   9
ENDBRANCH   2   6
ENDBRANCH   1   4
BRANCH   1  18
ATOM     18  C   THR A   2     -10.524  11.727 -14.967  0.00  0.00    +0.243 C 
ATOM     19  O   THR A   2     -10.044  12.853 -14.883  0.00  0.00    -0.273 OA
ATOM     20  N   HIS A   3      -9.867  10.694 -15.478  0.00  0.00    -0.298 N 
ATOM     21  H   HIS A   3     -10.376   9.795 -15.598  0.00  0.00    +0.150 HD
BRANCH  20  22
ATOM     22  CA  HIS A   3      -8.480  10.757 -15.876  0.00  0.00    +0.143 C 
BRANCH  22  23
ATOM     23  C   HIS A   3      -8.265   9.787 -17.000  0.00  0.00    +0.227 C 
ATOM     24  O   HIS A   3      -8.841   8.685 -17.001  0.00  0.00    -0.286 OA
ENDBRANCH  22  23
BRANCH  22  25
ATOM     25  CB  HIS A   3      -7.584  10.416 -14.694  0.00  0.00    +0.075 C 
BRANCH  25  26
ATOM     26  CG  HIS A   3      -6.109  10.442 -15.011  0.00  0.00    +0.082 A 
ATOM     27  CD2 HIS A   3      -5.180  11.478 -14.961  0.00  0.00    +0.115 A 
ATOM     28  NE2 HIS A   3      -3.993  10.970 -15.337  0.00  0.00    -0.221 NA
ATOM     29  CE1 HIS A   3      -4.150   9.670 -15.612  0.00  0.00    +0.199 A 
ATOM     30  ND1 HIS A   3      -5.439   9.353 -15.411  0.00  0.00    -0.227 NA
ENDBRANCH  25  26
ENDBRANCH  22  25
ENDBRANCH  20  22
ENDBRANCH   1  18
BRANCH   1  31
ATOM     31  CB  THR A   2     -12.683  10.452 -15.354  0.00  0.00    +0.137 C 
ATOM     32  CG2 THR A   2     -12.929  11.108 -16.703  0.00  0.00    +0.034 C 
BRANCH  31  33
ATOM     33  OG1 THR A   2     -11.943   9.238 -15.530  0.00  0.00    -0.382 OA
ATOM     34  HG1 THR A   2     -12.441   8.634 -16.136  0.00  0.00    +0.210 HD
ENDBRANCH  31  33
ENDBRANCH   1  31
TORSDOF 13
REMARK  Name = ../refined-set-2016/4zb8/4zb8_pocket.pdb
REMARK  221 active torsions:
REMARK  status: ('A' for Active; 'I' for Inactive)
REMARK    1  A    between atoms: _1  and  _3
REMARK    2  A    between atoms: _3  and  _4
REMARK    3  A    between atoms: _3  and  _6
REMARK    4  A    between atoms: _6  and  _7
REMARK    5  A    between atoms: _12  and  _13
REMARK    6  A    between atoms: _15  and  _17
REMARK    7  A    between atoms: _17  and  _18
REMARK    8  A    between atoms: _17  and  _20
REMARK    9  A    between atoms: _20  and  _21
REMARK   10  A    between atoms: _24  and  _26
REMARK   11  A    between atoms: _26  and  _27
REMARK   12  A    between atoms: _26  and  _29
REMARK   13  A    between atoms: _29  and  _30
REMARK   14  A    between atoms: _35  and  _37
REMARK   15  A    between atoms: _37  and  _38
REMARK   16  A    between atoms: _40  and  _42
REMARK   17  A    between atoms: _42  and  _43
REMARK   18  A    between atoms: _46  and  _47
REMARK   19  A    between atoms: _52  and  _54
REMARK   20  A    between atoms: _54  and  _55
REMARK   21  A    between atoms: _54  and  _57
REMARK   22  A    between atoms: _57  and  _58
REMARK   23  A    between atoms: _63  and  _65
REMARK   24  A    between atoms: _65  and  _66
REMARK   25  A    between atoms: _68  and  _70
REMARK   26  A    between atoms: _70  and  _71
REMARK   27  A    between atoms: _70  and  _73
REMARK   28  A    between atoms: _73  and  _74
REMARK   29  A    between atoms: _84  and  _86
REMARK   30  A    between atoms: _86  and  _87
REMARK   31  A    between atoms: _86  and  _89
REMARK   32  A    between atoms: _89  and  _90
REMARK   33  A    between atoms: _90  and  _91
REMARK   34  A    between atoms: _91  and  _92
REMARK   35  A    between atoms: _92  and  _93
REMARK   36  A    between atoms: _97  and  _99
REMARK   37  A    between atoms: _99  and  _100
REMARK   38  A    between atoms: _99  and  _102
REMARK   39  A    between atoms: _105  and  _107
REMARK   40  A    between atoms: _107  and  _108
REMARK   41  A    between atoms: _107  and  _110
REMARK   42  A    between atoms: _110  and  _111
REMARK   43  A    between atoms: _114  and  _116
REMARK   44  A    between atoms: _116  and  _117
REMARK   45  A    between atoms: _116  and  _119
REMARK   46  A    between atoms: _119  and  _120
REMARK   47  A    between atoms: _126  and  _128
REMARK   48  A    between atoms: _128  and  _129
REMARK   49  A    between atoms: _128  and  _131
REMARK   50  A    between atoms: _131  and  _132
REMARK   51  A    between atoms: _137  and  _139
REMARK   52  A    between atoms: _139  and  _140
REMARK   53  A    between atoms: _139  and  _142
REMARK   54  A    between atoms: _142  and  _143
REMARK   55  A    between atoms: _143  and  _144
REMARK   56  A    between atoms: _144  and  _145
REMARK   57  A    between atoms: _145  and  _146
REMARK   58  A    between atoms: _150  and  _152
REMARK   59  A    between atoms: _152  and  _153
REMARK   60  A    between atoms: _152  and  _155
REMARK   61  A    between atoms: _155  and  _156
REMARK   62  A    between atoms: _161  and  _162
REMARK   63  A    between atoms: _164  and  _166
REMARK   64  A    between atoms: _166  and  _167
REMARK   65  A    between atoms: _166  and  _169
REMARK   66  A    between atoms: _169  and  _170
REMARK   67  A    between atoms: _175  and  _177
REMARK   68  A    between atoms: _177  and  _178
REMARK   69  A    between atoms: _177  and  _180
REMARK   70  A    between atoms: _180  and  _181
REMARK   71  A    between atoms: _186  and  _188
REMARK   72  A    between atoms: _188  and  _189
REMARK   73  A    between atoms: _191  and  _193
REMARK   74  A    between atoms: _193  and  _194
REMARK   75  A    between atoms: _193  and  _196
REMARK   76  A    between atoms: _196  and  _197
REMARK   77  A    between atoms: _197  and  _198
REMARK   78  A    between atoms: _198  and  _199
REMARK   79  A    between atoms: _208  and  _210
REMARK   80  A    between atoms: _210  and  _211
REMARK   81  A    between atoms: _210  and  _213
REMARK   82  A    between atoms: _213  and  _214
REMARK   83  A    between atoms: _218  and  _219
REMARK   84  A    between atoms: _224  and  _226
REMARK   85  A    between atoms: _226  and  _227
REMARK   86  A    between atoms: _230  and  _232
REMARK   87  A    between atoms: _232  and  _233
REMARK   88  A    between atoms: _232  and  _235
REMARK   89  A    between atoms: _235  and  _236
REMARK   90  A    between atoms: _246  and  _248
REMARK   91  A    between atoms: _248  and  _249
REMARK   92  A    between atoms: _248  and  _251
REMARK   93  A    between atoms: _251  and  _252
REMARK   94  A    between atoms: _252  and  _253
REMARK   95  A    between atoms: _256  and  _258
REMARK   96  A    between atoms: _258  and  _259
REMARK   97  A    between atoms: _258  and  _261
REMARK   98  A    between atoms: _261  and  _262
REMARK   99  A    between atoms: _264  and  _266
REMARK  100  A    between atoms: _266  and  _267
REMARK  101  A    between atoms: _266  and  _269
REMARK  102  A    between atoms: _269  and  _270
REMARK  103  A    between atoms: _275  and  _277
REMARK  104  A    between atoms: _277  and  _278
REMARK  105  A    between atoms: _281  and  _283
REMARK  106  A    between atoms: _283  and  _284
REMARK  107  A    between atoms: _283  and  _286
REMARK  108  A    between atoms: _286  and  _287
REMARK  109  A    between atoms: _290  and  _292
REMARK  110  A    between atoms: _292  and  _293
REMARK  111  A    between atoms: _292  and  _295
REMARK  112  A    between atoms: _295  and  _296
REMARK  113  A    between atoms: _299  and  _301
REMARK  114  A    between atoms: _301  and  _302
REMARK  115  A    between atoms: _301  and  _304
REMARK  116  A    between atoms: _304  and  _305
REMARK  117  A    between atoms: _305  and  _306
REMARK  118  A    between atoms: _311  and  _313
REMARK  119  A    between atoms: _313  and  _314
REMARK  120  A    between atoms: _317  and  _319
REMARK  121  A    between atoms: _319  and  _320
REMARK  122  A    between atoms: _319  and  _322
REMARK  123  A    between atoms: _322  and  _323
REMARK  124  A    between atoms: _325  and  _327
REMARK  125  A    between atoms: _327  and  _328
REMARK  126  A    between atoms: _330  and  _332
REMARK  127  A    between atoms: _332  and  _333
REMARK  128  A    between atoms: _332  and  _335
REMARK  129  A    between atoms: _335  and  _336
REMARK  130  A    between atoms: _336  and  _337
REMARK  131  A    between atoms: _342  and  _344
REMARK  132  A    between atoms: _344  and  _345
REMARK  133  A    between atoms: _348  and  _349
REMARK  134  A    between atoms: _354  and  _356
REMARK  135  A    between atoms: _356  and  _357
REMARK  136  A    between atoms: _356  and  _359
REMARK  137  A    between atoms: _359  and  _360
REMARK  138  A    between atoms: _365  and  _366
REMARK  139  A    between atoms: _368  and  _370
REMARK  140  A    between atoms: _370  and  _371
REMARK  141  A    between atoms: _370  and  _373
REMARK  142  A    between atoms: _373  and  _374
REMARK  143  A    between atoms: _379  and  _380
REMARK  144  A    between atoms: _382  and  _384
REMARK  145  A    between atoms: _384  and  _385
REMARK  146  A    between atoms: _387  and  _389
REMARK  147  A    between atoms: _389  and  _390
REMARK  148  A    between atoms: _389  and  _392
REMARK  149  A    between atoms: _392  and  _393
REMARK  150  A    between atoms: _393  and  _394
REMARK  151  A    between atoms: _399  and  _401
REMARK  152  A    between atoms: _401  and  _402
REMARK  153  A    between atoms: _405  and  _407
REMARK  154  A    between atoms: _407  and  _408
REMARK  155  A    between atoms: _411  and  _413
REMARK  156  A    between atoms: _413  and  _414
REMARK  157  A    between atoms: _413  and  _416
REMARK  158  A    between atoms: _416  and  _417
REMARK  159  A    between atoms: _427  and  _429
REMARK  160  A    between atoms: _429  and  _430
REMARK  161  A    between atoms: _429  and  _432
REMARK  162  A    between atoms: _432  and  _433
REMARK  163  A    between atoms: _439  and  _441
REMARK  164  A    between atoms: _441  and  _442
REMARK  165  A    between atoms: _441  and  _444
REMARK  166  A    between atoms: _444  and  _445
REMARK  167  A    between atoms: _450  and  _451
REMARK  168  A    between atoms: _453  and  _455
REMARK  169  A    between atoms: _455  and  _456
REMARK  170  A    between atoms: _455  and  _458
REMARK  171  A    between atoms: _458  and  _459
REMARK  172  A    between atoms: _469  and  _471
REMARK  173  A    between atoms: _471  and  _472
REMARK  174  A    between atoms: _471  and  _474
REMARK  175  A    between atoms: _474  and  _475
REMARK  176  A    between atoms: _480  and  _481
REMARK  177  A    between atoms: _483  and  _485
REMARK  178  A    between atoms: _485  and  _486
REMARK  179  A    between atoms: _485  and  _488
REMARK  180  A    between atoms: _488  and  _489
REMARK  181  A    between atoms: _495  and  _497
REMARK  182  A    between atoms: _497  and  _498
REMARK  183  A    between atoms: _501  and  _503
REMARK  184  A    between atoms: _503  and  _504
REMARK  185  A    between atoms: _503  and  _506
REMARK  186  A    between atoms: _506  and  _507
REMARK  187  A    between atoms: _509  and  _511
REMARK  188  A    between atoms: _511  and  _512
REMARK  189  A    between atoms: _514  and  _516
REMARK  190  A    between atoms: _516  and  _517
REMARK  191  A    between atoms: _516  and  _519
REMARK  192  A    between atoms: _519  and  _520
REMARK  193  A    between atoms: _520  and  _521
REMARK  194  A    between atoms: _527  and  _528
REMARK  195  A    between atoms: _533  and  _535
REMARK  196  A    between atoms: _535  and  _536
REMARK  197  A    between atoms: _535  and  _538
REMARK  198  A    between atoms: _538  and  _539
REMARK  199  A    between atoms: _544  and  _545
REMARK  200  A    between atoms: _547  and  _549
REMARK  201  A    between atoms: _549  and  _550
REMARK  202  A    between atoms: _549  and  _552
REMARK  203  A    between atoms: _552  and  _553
REMARK  204  A    between atoms: _553  and  _554
REMARK  205  A    between atoms: _554  and  _555
REMARK  206  A    between atoms: _564  and  _566
REMARK  207  A    between atoms: _566  and  _567
REMARK  208  A    between atoms: _566  and  _569
REMARK  209  A    between atoms: _569  and  _570
REMARK  210  A    between atoms: _575  and  _576
REMARK  211  A    between atoms: _578  and  _580
REMARK  212  A    between atoms: _580  and  _581
REMARK  213  A    between atoms: _580  and  _583
REMARK  214  A    between atoms: _583  and  _584
REMARK  215  A    between atoms: _584  and  _585
REMARK  216  A    between atoms: _588  and  _590
REMARK  217  A    between atoms: _590  and  _591
REMARK  218  A    between atoms: _590  and  _593
REMARK  219  A    between atoms: _593  and  _594
REMARK  220  A    between atoms: _594  and  _595
REMARK  221  A    between atoms: _595  and  _596
REMARK                            x       y       z     vdW  Elec       q    Type
REMARK                         _______ _______ _______ _____ _____    ______ ____
ROOT
ATOM      1  C   GLY A   5     -13.193   5.758 -14.788  0.00  0.00    +0.243 C 
ATOM      2  O   GLY A   5     -14.410   5.804 -14.928  0.00  0.00    -0.273 OA
ATOM      3  N   TRP A   6     -12.409   4.968 -15.509  0.00  0.00    -0.297 N 
ATOM      4  H   TRP A   6     -11.377   5.063 -15.420  0.00  0.00    +0.150 HD
ENDROOT
BRANCH   3   5
ATOM      5  CA  TRP A   6     -12.948   3.976 -16.417  0.00  0.00    +0.153 C 
BRANCH   5   6
ATOM      6  C   TRP A   6     -13.824   2.966 -15.725  0.00  0.00    +0.241 C 
ATOM      7  N   LYS A   7     -13.523   2.665 -14.469  0.00  0.00    -0.297 N 
ATOM      8  H   LYS A   7     -12.675   3.080 -14.033  0.00  0.00    +0.150 HD
ATOM      9  O   TRP A   6     -14.783   2.459 -16.320  0.00  0.00    -0.273 OA
BRANCH   7  10
ATOM     10  CA  LYS A   7     -14.359   1.765 -13.691  0.00  0.00    +0.149 C 
BRANCH  10  11
ATOM     11  C   LYS A   7     -15.784   2.292 -13.644  0.00  0.00    +0.241 C 
ATOM     12  N   VAL A   8     -15.925   3.587 -13.402  0.00  0.00    -0.298 N 
ATOM     13  H   VAL A   8     -15.078   4.175 -13.269  0.00  0.00    +0.150 HD
ATOM     14  O   LYS A   7     -16.730   1.547 -13.841  0.00  0.00    -0.273 OA
BRANCH  12  15
ATOM     15  CA  VAL A   8     -17.241   4.204 -13.319  0.00  0.00    +0.137 C 
BRANCH  15  16
ATOM     16  CB  VAL A   8     -17.171   5.602 -12.682  0.00  0.00    +0.026 C 
ATOM     17  CG2 VAL A   8     -16.907   5.485 -11.190  0.00  0.00    +0.002 C 
ATOM     18  CG1 VAL A   8     -18.454   6.376 -12.944  0.00  0.00    +0.002 C 
ENDBRANCH  15  16
BRANCH  15  19
ATOM     19  C   VAL A   8     -17.866   4.288 -14.707  0.00  0.00    +0.227 C 
ATOM     20  O   VAL A   8     -19.027   3.957 -14.890  0.00  0.00    -0.286 OA
ENDBRANCH  15  19
ENDBRANCH  12  15
ENDBRANCH  10  11
BRANCH  10  21
ATOM     21  CB  LYS A   7     -13.806   1.577 -12.277  0.00  0.00    +0.029 C 
BRANCH  21  22
ATOM     22  CG  LYS A   7     -14.363   0.360 -11.554  0.00  0.00    +0.000 C 
BRANCH  22  23
ATOM     23  CD  LYS A   7     -14.444   0.582 -10.051  0.00  0.00    -0.024 C 
BRANCH  23  24
ATOM     24  CE  LYS A   7     -13.068   0.662  -9.417  0.00  0.00    -0.086 C 
BRANCH  24  25
ATOM     25  NZ  LYS A   7     -13.133   0.687  -7.937  0.00  0.00    +0.380 N 
ATOM     26  HZ1 LYS A   7     -12.169   0.742  -7.550  0.00  0.00    -0.089 HD
ATOM     27  HZ2 LYS A   7     -13.596  -0.180  -7.597  0.00  0.00    -0.089 HD
ATOM     28  HZ3 LYS A   7     -13.679   1.517  -7.629  0.00  0.00    -0.089 HD
ENDBRANCH  24  25
ENDBRANCH  23  24
ENDBRANCH  22  23
ENDBRANCH  21  22
ENDBRANCH  10  21
ENDBRANCH   7  10
ENDBRANCH   5   6
BRANCH   5  29
ATOM     29  CB  TRP A   6     -11.827   3.286 -17.184  0.00  0.00    +0.057 C 
BRANCH  29  30
ATOM     30  CG  TRP A   6     -11.033   4.252 -18.022  0.00  0.00    -0.002 A 
ATOM     31  CD1 TRP A   6      -9.707   4.634 -17.856  0.00  0.00    +0.068 A 
ATOM     32  NE1 TRP A   6      -9.339   5.545 -18.809  0.00  0.00    -0.352 N 
ATOM     33  HE1 TRP A   6      -8.392   5.967 -18.889  0.00  0.00    +0.166 HD
ATOM     34  CE2 TRP A   6     -10.373   5.821 -19.631  0.00  0.00    +0.056 A 
ATOM     35  CZ2 TRP A   6     -10.466   6.670 -20.714  0.00  0.00    +0.017 A 
ATOM     36  CH2 TRP A   6     -11.693   6.730 -21.366  0.00  0.00    +0.001 A 
ATOM     37  CZ3 TRP A   6     -12.791   5.974 -20.950  0.00  0.00    +0.000 A 
ATOM     38  CE3 TRP A   6     -12.712   5.114 -19.858  0.00  0.00    +0.001 A 
ATOM     39  CD2 TRP A   6     -11.509   5.021 -19.177  0.00  0.00    +0.013 A 
ENDBRANCH  29  30
ENDBRANCH   5  29
ENDBRANCH   3   5
BRANCH   1  40
ATOM     40  CA  GLY A   5     -12.494   6.611 -13.746  0.00  0.00    +0.176 C 
BRANCH  40  43
ATOM     41  C   ASN A   4     -11.938   5.024 -12.002  0.00  0.00    +0.241 C 
ATOM     42  O   ASN A   4     -13.101   4.958 -11.620  0.00  0.00    -0.273 OA
ATOM     43  N   GLY A   5     -11.542   5.852 -12.960  0.00  0.00    -0.295 N 
ATOM     44  H   GLY A   5     -10.525   5.959 -13.151  0.00  0.00    +0.150 HD
BRANCH  41  45
ATOM     45  CA  ASN A   4     -10.858   4.135 -11.378  0.00  0.00    +0.158 C 
BRANCH  45  47
ATOM     46  C   PRO A   3      -9.699   3.088 -13.239  0.00  0.00    +0.241 C 
ATOM     47  N   ASN A   4      -9.691   3.955 -12.233  0.00  0.00    -0.297 N 
ATOM     48  H   ASN A   4      -8.835   4.517 -12.051  0.00  0.00    +0.150 HD
ATOM     49  O   PRO A   3     -10.727   2.607 -13.701  0.00  0.00    -0.273 OA
BRANCH  46  55
ATOM     50  C   GLY A   2      -7.207   4.744 -14.435  0.00  0.00    +0.246 C 
ATOM     51  N   PRO A   3      -7.302   3.693 -13.631  0.00  0.00    -0.272 N 
ATOM     52  CD  PRO A   3      -6.165   3.176 -12.857  0.00  0.00    +0.094 C 
ATOM     53  CG  PRO A   3      -6.736   1.962 -12.188  0.00  0.00    +0.024 C 
ATOM     54  CB  PRO A   3      -7.796   1.448 -13.092  0.00  0.00    +0.031 C 
ATOM     55  CA  PRO A   3      -8.347   2.680 -13.822  0.00  0.00    +0.152 C 
ATOM     56  O   GLY A   2      -8.074   5.034 -15.248  0.00  0.00    -0.273 OA
BRANCH  50  57
ATOM     57  CA  GLY A   2      -5.960   5.600 -14.304  0.00  0.00    +0.176 C 
BRANCH  57  59
ATOM     58  C   GLY A   1      -5.366   5.837 -16.631  0.00  0.00    +0.240 C 
ATOM     59  N   GLY A   2      -5.723   6.408 -15.487  0.00  0.00    -0.295 N 
ATOM     60  H   GLY A   2      -5.834   7.441 -15.438  0.00  0.00    +0.150 HD
ATOM     61  O   GLY A   1      -5.324   4.620 -16.769  0.00  0.00    -0.274 OA
BRANCH  58  62
ATOM     62  CA  GLY A   1      -4.992   6.754 -17.782  0.00  0.00    +0.169 C 
BRANCH  62  63
ATOM     63  N   GLY A   1      -5.765   7.959 -18.025  0.00  0.00    -0.236 NA
ATOM     64  H   GLY A   1      -5.563   8.808 -17.459  0.00  0.00    +0.142 HD
ENDBRANCH  62  63
ENDBRANCH  58  62
ENDBRANCH  57  59
ENDBRANCH  50  57
ENDBRANCH  46  55
ENDBRANCH  45  47
BRANCH  45  65
ATOM     65  CB  ASN A   4     -10.447   4.680 -10.012  0.00  0.00    +0.114 C 
BRANCH  65  66
ATOM     66  CG  ASN A   4      -9.635   3.683  -9.212  0.00  0.00    +0.222 C 
ATOM     67  ND2 ASN A   4      -8.555   4.148  -8.611  0.00  0.00    -0.329 N 
ATOM     68 HD21 ASN A   4      -7.953   3.508  -8.055  0.00  0.00    +0.145 HD
ATOM     69 HD22 ASN A   4      -8.306   5.154  -8.694  0.00  0.00    +0.145 HD
ATOM     70  OD1 ASN A   4      -9.973   2.512  -9.148  0.00  0.00    -0.275 OA
ENDBRANCH  65  66
ENDBRANCH  45  65
ENDBRANCH  41  45
ENDBRANCH  40  43
ENDBRANCH   1  40
TORSDOF 25
REMARK  Name = ../refined-set-2016/4zb8/4zb8_pocket.pdb
REMARK  221 active torsions:
REMARK  status: ('A' for Active; 'I' for Inactive)
REMARK    1  A    between atoms: _1  and  _3
REMARK    2  A    between atoms: _3  and  _4
REMARK    3  A    between atoms: _3  and  _6
REMARK    4  A    between atoms: _6  and  _7
REMARK    5  A    between atoms: _12  and  _13
REMARK    6  A    between atoms: _15  and  _17
REMARK    7  A    between atoms: _17  and  _18
REMARK    8  A    between atoms: _17  and  _20
REMARK    9  A    between atoms: _20  and  _21
REMARK   10  A    between atoms: _24  and  _26
REMARK   11  A    between atoms: _26  and  _27
REMARK   12  A    between atoms: _26  and  _29
REMARK   13  A    between atoms: _29  and  _30
REMARK   14  A    between atoms: _35  and  _37
REMARK   15  A    between atoms: _37  and  _38
REMARK   16  A    between atoms: _40  and  _42
REMARK   17  A    between atoms: _42  and  _43
REMARK   18  A    between atoms: _46  and  _47
REMARK   19  A    between atoms: _52  and  _54
REMARK   20  A    between atoms: _54  and  _55
REMARK   21  A    between atoms: _54  and  _57
REMARK   22  A    between atoms: _57  and  _58
REMARK   23  A    between atoms: _63  and  _65
REMARK   24  A    between atoms: _65  and  _66
REMARK   25  A    between atoms: _68  and  _70
REMARK   26  A    between atoms: _70  and  _71
REMARK   27  A    between atoms: _70  and  _73
REMARK   28  A    between atoms: _73  and  _74
REMARK   29  A    between atoms: _84  and  _86
REMARK   30  A    between atoms: _86  and  _87
REMARK   31  A    between atoms: _86  and  _89
REMARK   32  A    between atoms: _89  and  _90
REMARK   33  A    between atoms: _90  and  _91
REMARK   34  A    between atoms: _91  and  _92
REMARK   35  A    between atoms: _92  and  _93
REMARK   36  A    between atoms: _97  and  _99
REMARK   37  A    between atoms: _99  and  _100
REMARK   38  A    between atoms: _99  and  _102
REMARK   39  A    between atoms: _105  and  _107
REMARK   40  A    between atoms: _107  and  _108
REMARK   41  A    between atoms: _107  and  _110
REMARK   42  A    between atoms: _110  and  _111
REMARK   43  A    between atoms: _114  and  _116
REMARK   44  A    between atoms: _116  and  _117
REMARK   45  A    between atoms: _116  and  _119
REMARK   46  A    between atoms: _119  and  _120
REMARK   47  A    between atoms: _126  and  _128
REMARK   48  A    between atoms: _128  and  _129
REMARK   49  A    between atoms: _128  and  _131
REMARK   50  A    between atoms: _131  and  _132
REMARK   51  A    between atoms: _137  and  _139
REMARK   52  A    between atoms: _139  and  _140
REMARK   53  A    between atoms: _139  and  _142
REMARK   54  A    between atoms: _142  and  _143
REMARK   55  A    between atoms: _143  and  _144
REMARK   56  A    between atoms: _144  and  _145
REMARK   57  A    between atoms: _145  and  _146
REMARK   58  A    between atoms: _150  and  _152
REMARK   59  A    between atoms: _152  and  _153
REMARK   60  A    between atoms: _152  and  _155
REMARK   61  A    between atoms: _155  and  _156
REMARK   62  A    between atoms: _161  and  _162
REMARK   63  A    between atoms: _164  and  _166
REMARK   64  A    between atoms: _166  and  _167
REMARK   65  A    between atoms: _166  and  _169
REMARK   66  A    between atoms: _169  and  _170
REMARK   67  A    between atoms: _175  and  _177
REMARK   68  A    between atoms: _177  and  _178
REMARK   69  A    between atoms: _177  and  _180
REMARK   70  A    between atoms: _180  and  _181
REMARK   71  A    between atoms: _186  and  _188
REMARK   72  A    between atoms: _188  and  _189
REMARK   73  A    between atoms: _191  and  _193
REMARK   74  A    between atoms: _193  and  _194
REMARK   75  A    between atoms: _193  and  _196
REMARK   76  A    between atoms: _196  and  _197
REMARK   77  A    between atoms: _197  and  _198
REMARK   78  A    between atoms: _198  and  _199
REMARK   79  A    between atoms: _208  and  _210
REMARK   80  A    between atoms: _210  and  _211
REMARK   81  A    between atoms: _210  and  _213
REMARK   82  A    between atoms: _213  and  _214
REMARK   83  A    between atoms: _218  and  _219
REMARK   84  A    between atoms: _224  and  _226
REMARK   85  A    between atoms: _226  and  _227
REMARK   86  A    between atoms: _230  and  _232
REMARK   87  A    between atoms: _232  and  _233
REMARK   88  A    between atoms: _232  and  _235
REMARK   89  A    between atoms: _235  and  _236
REMARK   90  A    between atoms: _246  and  _248
REMARK   91  A    between atoms: _248  and  _249
REMARK   92  A    between atoms: _248  and  _251
REMARK   93  A    between atoms: _251  and  _252
REMARK   94  A    between atoms: _252  and  _253
REMARK   95  A    between atoms: _256  and  _258
REMARK   96  A    between atoms: _258  and  _259
REMARK   97  A    between atoms: _258  and  _261
REMARK   98  A    between atoms: _261  and  _262
REMARK   99  A    between atoms: _264  and  _266
REMARK  100  A    between atoms: _266  and  _267
REMARK  101  A    between atoms: _266  and  _269
REMARK  102  A    between atoms: _269  and  _270
REMARK  103  A    between atoms: _275  and  _277
REMARK  104  A    between atoms: _277  and  _278
REMARK  105  A    between atoms: _281  and  _283
REMARK  106  A    between atoms: _283  and  _284
REMARK  107  A    between atoms: _283  and  _286
REMARK  108  A    between atoms: _286  and  _287
REMARK  109  A    between atoms: _290  and  _292
REMARK  110  A    between atoms: _292  and  _293
REMARK  111  A    between atoms: _292  and  _295
REMARK  112  A    between atoms: _295  and  _296
REMARK  113  A    between atoms: _299  and  _301
REMARK  114  A    between atoms: _301  and  _302
REMARK  115  A    between atoms: _301  and  _304
REMARK  116  A    between atoms: _304  and  _305
REMARK  117  A    between atoms: _305  and  _306
REMARK  118  A    between atoms: _311  and  _313
REMARK  119  A    between atoms: _313  and  _314
REMARK  120  A    between atoms: _317  and  _319
REMARK  121  A    between atoms: _319  and  _320
REMARK  122  A    between atoms: _319  and  _322
REMARK  123  A    between atoms: _322  and  _323
REMARK  124  A    between atoms: _325  and  _327
REMARK  125  A    between atoms: _327  and  _328
REMARK  126  A    between atoms: _330  and  _332
REMARK  127  A    between atoms: _332  and  _333
REMARK  128  A    between atoms: _332  and  _335
REMARK  129  A    between atoms: _335  and  _336
REMARK  130  A    between atoms: _336  and  _337
REMARK  131  A    between atoms: _342  and  _344
REMARK  132  A    between atoms: _344  and  _345
REMARK  133  A    between atoms: _348  and  _349
REMARK  134  A    between atoms: _354  and  _356
REMARK  135  A    between atoms: _356  and  _357
REMARK  136  A    between atoms: _356  and  _359
REMARK  137  A    between atoms: _359  and  _360
REMARK  138  A    between atoms: _365  and  _366
REMARK  139  A    between atoms: _368  and  _370
REMARK  140  A    between atoms: _370  and  _371
REMARK  141  A    between atoms: _370  and  _373
REMARK  142  A    between atoms: _373  and  _374
REMARK  143  A    between atoms: _379  and  _380
REMARK  144  A    between atoms: _382  and  _384
REMARK  145  A    between atoms: _384  and  _385
REMARK  146  A    between atoms: _387  and  _389
REMARK  147  A    between atoms: _389  and  _390
REMARK  148  A    between atoms: _389  and  _392
REMARK  149  A    between atoms: _392  and  _393
REMARK  150  A    between atoms: _393  and  _394
REMARK  151  A    between atoms: _399  and  _401
REMARK  152  A    between atoms: _401  and  _402
REMARK  153  A    between atoms: _405  and  _407
REMARK  154  A    between atoms: _407  and  _408
REMARK  155  A    between atoms: _411  and  _413
REMARK  156  A    between atoms: _413  and  _414
REMARK  157  A    between atoms: _413  and  _416
REMARK  158  A    between atoms: _416  and  _417
REMARK  159  A    between atoms: _427  and  _429
REMARK  160  A    between atoms: _429  and  _430
REMARK  161  A    between atoms: _429  and  _432
REMARK  162  A    between atoms: _432  and  _433
REMARK  163  A    between atoms: _439  and  _441
REMARK  164  A    between atoms: _441  and  _442
REMARK  165  A    between atoms: _441  and  _444
REMARK  166  A    between atoms: _444  and  _445
REMARK  167  A    between atoms: _450  and  _451
REMARK  168  A    between atoms: _453  and  _455
REMARK  169  A    between atoms: _455  and  _456
REMARK  170  A    between atoms: _455  and  _458
REMARK  171  A    between atoms: _458  and  _459
REMARK  172  A    between atoms: _469  and  _471
REMARK  173  A    between atoms: _471  and  _472
REMARK  174  A    between atoms: _471  and  _474
REMARK  175  A    between atoms: _474  and  _475
REMARK  176  A    between atoms: _480  and  _481
REMARK  177  A    between atoms: _483  and  _485
REMARK  178  A    between atoms: _485  and  _486
REMARK  179  A    between atoms: _485  and  _488
REMARK  180  A    between atoms: _488  and  _489
REMARK  181  A    between atoms: _495  and  _497
REMARK  182  A    between atoms: _497  and  _498
REMARK  183  A    between atoms: _501  and  _503
REMARK  184  A    between atoms: _503  and  _504
REMARK  185  A    between atoms: _503  and  _506
REMARK  186  A    between atoms: _506  and  _507
REMARK  187  A    between atoms: _509  and  _511
REMARK  188  A    between atoms: _511  and  _512
REMARK  189  A    between atoms: _514  and  _516
REMARK  190  A    between atoms: _516  and  _517
REMARK  191  A    between atoms: _516  and  _519
REMARK  192  A    between atoms: _519  and  _520
REMARK  193  A    between atoms: _520  and  _521
REMARK  194  A    between atoms: _527  and  _528
REMARK  195  A    between atoms: _533  and  _535
REMARK  196  A    between atoms: _535  and  _536
REMARK  197  A    between atoms: _535  and  _538
REMARK  198  A    between atoms: _538  and  _539
REMARK  199  A    between atoms: _544  and  _545
REMARK  200  A    between atoms: _547  and  _549
REMARK  201  A    between atoms: _549  and  _550
REMARK  202  A    between atoms: _549  and  _552
REMARK  203  A    between atoms: _552  and  _553
REMARK  204  A    between atoms: _553  and  _554
REMARK  205  A    between atoms: _554  and  _555
REMARK  206  A    between atoms: _564  and  _566
REMARK  207  A    between atoms: _566  and  _567
REMARK  208  A    between atoms: _566  and  _569
REMARK  209  A    between atoms: _569  and  _570
REMARK  210  A    between atoms: _575  and  _576
REMARK  211  A    between atoms: _578  and  _580
REMARK  212  A    between atoms: _580  and  _581
REMARK  213  A    between atoms: _580  and  _583
REMARK  214  A    between atoms: _583  and  _584
REMARK  215  A    between atoms: _584  and  _585
REMARK  216  A    between atoms: _588  and  _590
REMARK  217  A    between atoms: _590  and  _591
REMARK  218  A    between atoms: _590  and  _593
REMARK  219  A    between atoms: _593  and  _594
REMARK  220  A    between atoms: _594  and  _595
REMARK  221  A    between atoms: _595  and  _596
REMARK                            x       y       z     vdW  Elec       q    Type
REMARK                         _______ _______ _______ _____ _____    ______ ____
ROOT
ATOM      1  CA  LEU A   1      -8.087  16.088 -15.099  0.00  0.00    +0.133 C 
ENDROOT
BRANCH   1   2
ATOM      2  N   LEU A   1      -9.011  15.272 -15.875  0.00  0.00    -0.239 NA
ATOM      3  H   LEU A   1      -9.355  14.379 -15.468  0.00  0.00    +0.142 HD
ENDBRANCH   1   2
BRANCH   1   4
ATOM      4  C   LEU A   1      -6.624  15.773 -15.401  0.00  0.00    +0.224 C 
ATOM      5  O   LEU A   1      -6.246  14.623 -15.554  0.00  0.00    -0.287 OA
ENDBRANCH   1   4
BRANCH   1   6
ATOM      6  CB  LEU A   1      -8.345  15.901 -13.607  0.00  0.00    +0.025 C 
BRANCH   6   7
ATOM      7  CG  LEU A   1      -9.746  16.257 -13.106  0.00  0.00    +0.002 C 
ATOM      8  CD2 LEU A   1      -9.813  16.121 -11.598  0.00  0.00    +0.000 C 
ATOM      9  CD1 LEU A   1     -10.099  17.667 -13.542  0.00  0.00    +0.000 C 
ENDBRANCH   6   7
ENDBRANCH   1   6
TORSDOF 4
REMARK  Name = ../refined-set-2016/4zb8/4zb8_pocket.pdb
REMARK  221 active torsions:
REMARK  status: ('A' for Active; 'I' for Inactive)
REMARK    1  A    between atoms: _1  and  _3
REMARK    2  A    between atoms: _3  and  _4
REMARK    3  A    between atoms: _3  and  _6
REMARK    4  A    between atoms: _6  and  _7
REMARK    5  A    between atoms: _12  and  _13
REMARK    6  A    between atoms: _15  and  _17
REMARK    7  A    between atoms: _17  and  _18
REMARK    8  A    between atoms: _17  and  _20
REMARK    9  A    between atoms: _20  and  _21
REMARK   10  A    between atoms: _24  and  _26
REMARK   11  A    between atoms: _26  and  _27
REMARK   12  A    between atoms: _26  and  _29
REMARK   13  A    between atoms: _29  and  _30
REMARK   14  A    between atoms: _35  and  _37
REMARK   15  A    between atoms: _37  and  _38
REMARK   16  A    between atoms: _40  and  _42
REMARK   17  A    between atoms: _42  and  _43
REMARK   18  A    between atoms: _46  and  _47
REMARK   19  A    between atoms: _52  and  _54
REMARK   20  A    between atoms: _54  and  _55
REMARK   21  A    between atoms: _54  and  _57
REMARK   22  A    between atoms: _57  and  _58
REMARK   23  A    between atoms: _63  and  _65
REMARK   24  A    between atoms: _65  and  _66
REMARK   25  A    between atoms: _68  and  _70
REMARK   26  A    between atoms: _70  and  _71
REMARK   27  A    between atoms: _70  and  _73
REMARK   28  A    between atoms: _73  and  _74
REMARK   29  A    between atoms: _84  and  _86
REMARK   30  A    between atoms: _86  and  _87
REMARK   31  A    between atoms: _86  and  _89
REMARK   32  A    between atoms: _89  and  _90
REMARK   33  A    between atoms: _90  and  _91
REMARK   34  A    between atoms: _91  and  _92
REMARK   35  A    between atoms: _92  and  _93
REMARK   36  A    between atoms: _97  and  _99
REMARK   37  A    between atoms: _99  and  _100
REMARK   38  A    between atoms: _99  and  _102
REMARK   39  A    between atoms: _105  and  _107
REMARK   40  A    between atoms: _107  and  _108
REMARK   41  A    between atoms: _107  and  _110
REMARK   42  A    between atoms: _110  and  _111
REMARK   43  A    between atoms: _114  and  _116
REMARK   44  A    between atoms: _116  and  _117
REMARK   45  A    between atoms: _116  and  _119
REMARK   46  A    between atoms: _119  and  _120
REMARK   47  A    between atoms: _126  and  _128
REMARK   48  A    between atoms: _128  and  _129
REMARK   49  A    between atoms: _128  and  _131
REMARK   50  A    between atoms: _131  and  _132
REMARK   51  A    between atoms: _137  and  _139
REMARK   52  A    between atoms: _139  and  _140
REMARK   53  A    between atoms: _139  and  _142
REMARK   54  A    between atoms: _142  and  _143
REMARK   55  A    between atoms: _143  and  _144
REMARK   56  A    between atoms: _144  and  _145
REMARK   57  A    between atoms: _145  and  _146
REMARK   58  A    between atoms: _150  and  _152
REMARK   59  A    between atoms: _152  and  _153
REMARK   60  A    between atoms: _152  and  _155
REMARK   61  A    between atoms: _155  and  _156
REMARK   62  A    between atoms: _161  and  _162
REMARK   63  A    between atoms: _164  and  _166
REMARK   64  A    between atoms: _166  and  _167
REMARK   65  A    between atoms: _166  and  _169
REMARK   66  A    between atoms: _169  and  _170
REMARK   67  A    between atoms: _175  and  _177
REMARK   68  A    between atoms: _177  and  _178
REMARK   69  A    between atoms: _177  and  _180
REMARK   70  A    between atoms: _180  and  _181
REMARK   71  A    between atoms: _186  and  _188
REMARK   72  A    between atoms: _188  and  _189
REMARK   73  A    between atoms: _191  and  _193
REMARK   74  A    between atoms: _193  and  _194
REMARK   75  A    between atoms: _193  and  _196
REMARK   76  A    between atoms: _196  and  _197
REMARK   77  A    between atoms: _197  and  _198
REMARK   78  A    between atoms: _198  and  _199
REMARK   79  A    between atoms: _208  and  _210
REMARK   80  A    between atoms: _210  and  _211
REMARK   81  A    between atoms: _210  and  _213
REMARK   82  A    between atoms: _213  and  _214
REMARK   83  A    between atoms: _218  and  _219
REMARK   84  A    between atoms: _224  and  _226
REMARK   85  A    between atoms: _226  and  _227
REMARK   86  A    between atoms: _230  and  _232
REMARK   87  A    between atoms: _232  and  _233
REMARK   88  A    between atoms: _232  and  _235
REMARK   89  A    between atoms: _235  and  _236
REMARK   90  A    between atoms: _246  and  _248
REMARK   91  A    between atoms: _248  and  _249
REMARK   92  A    between atoms: _248  and  _251
REMARK   93  A    between atoms: _251  and  _252
REMARK   94  A    between atoms: _252  and  _253
REMARK   95  A    between atoms: _256  and  _258
REMARK   96  A    between atoms: _258  and  _259
REMARK   97  A    between atoms: _258  and  _261
REMARK   98  A    between atoms: _261  and  _262
REMARK   99  A    between atoms: _264  and  _266
REMARK  100  A    between atoms: _266  and  _267
REMARK  101  A    between atoms: _266  and  _269
REMARK  102  A    between atoms: _269  and  _270
REMARK  103  A    between atoms: _275  and  _277
REMARK  104  A    between atoms: _277  and  _278
REMARK  105  A    between atoms: _281  and  _283
REMARK  106  A    between atoms: _283  and  _284
REMARK  107  A    between atoms: _283  and  _286
REMARK  108  A    between atoms: _286  and  _287
REMARK  109  A    between atoms: _290  and  _292
REMARK  110  A    between atoms: _292  and  _293
REMARK  111  A    between atoms: _292  and  _295
REMARK  112  A    between atoms: _295  and  _296
REMARK  113  A    between atoms: _299  and  _301
REMARK  114  A    between atoms: _301  and  _302
REMARK  115  A    between atoms: _301  and  _304
REMARK  116  A    between atoms: _304  and  _305
REMARK  117  A    between atoms: _305  and  _306
REMARK  118  A    between atoms: _311  and  _313
REMARK  119  A    between atoms: _313  and  _314
REMARK  120  A    between atoms: _317  and  _319
REMARK  121  A    between atoms: _319  and  _320
REMARK  122  A    between atoms: _319  and  _322
REMARK  123  A    between atoms: _322  and  _323
REMARK  124  A    between atoms: _325  and  _327
REMARK  125  A    between atoms: _327  and  _328
REMARK  126  A    between atoms: _330  and  _332
REMARK  127  A    between atoms: _332  and  _333
REMARK  128  A    between atoms: _332  and  _335
REMARK  129  A    between atoms: _335  and  _336
REMARK  130  A    between atoms: _336  and  _337
REMARK  131  A    between atoms: _342  and  _344
REMARK  132  A    between atoms: _344  and  _345
REMARK  133  A    between atoms: _348  and  _349
REMARK  134  A    between atoms: _354  and  _356
REMARK  135  A    between atoms: _356  and  _357
REMARK  136  A    between atoms: _356  and  _359
REMARK  137  A    between atoms: _359  and  _360
REMARK  138  A    between atoms: _365  and  _366
REMARK  139  A    between atoms: _368  and  _370
REMARK  140  A    between atoms: _370  and  _371
REMARK  141  A    between atoms: _370  and  _373
REMARK  142  A    between atoms: _373  and  _374
REMARK  143  A    between atoms: _379  and  _380
REMARK  144  A    between atoms: _382  and  _384
REMARK  145  A    between atoms: _384  and  _385
REMARK  146  A    between atoms: _387  and  _389
REMARK  147  A    between atoms: _389  and  _390
REMARK  148  A    between atoms: _389  and  _392
REMARK  149  A    between atoms: _392  and  _393
REMARK  150  A    between atoms: _393  and  _394
REMARK  151  A    between atoms: _399  and  _401
REMARK  152  A    between atoms: _401  and  _402
REMARK  153  A    between atoms: _405  and  _407
REMARK  154  A    between atoms: _407  and  _408
REMARK  155  A    between atoms: _411  and  _413
REMARK  156  A    between atoms: _413  and  _414
REMARK  157  A    between atoms: _413  and  _416
REMARK  158  A    between atoms: _416  and  _417
REMARK  159  A    between atoms: _427  and  _429
REMARK  160  A    between atoms: _429  and  _430
REMARK  161  A    between atoms: _429  and  _432
REMARK  162  A    between atoms: _432  and  _433
REMARK  163  A    between atoms: _439  and  _441
REMARK  164  A    between atoms: _441  and  _442
REMARK  165  A    between atoms: _441  and  _444
REMARK  166  A    between atoms: _444  and  _445
REMARK  167  A    between atoms: _450  and  _451
REMARK  168  A    between atoms: _453  and  _455
REMARK  169  A    between atoms: _455  and  _456
REMARK  170  A    between atoms: _455  and  _458
REMARK  171  A    between atoms: _458  and  _459
REMARK  172  A    between atoms: _469  and  _471
REMARK  173  A    between atoms: _471  and  _472
REMARK  174  A    between atoms: _471  and  _474
REMARK  175  A    between atoms: _474  and  _475
REMARK  176  A    between atoms: _480  and  _481
REMARK  177  A    between atoms: _483  and  _485
REMARK  178  A    between atoms: _485  and  _486
REMARK  179  A    between atoms: _485  and  _488
REMARK  180  A    between atoms: _488  and  _489
REMARK  181  A    between atoms: _495  and  _497
REMARK  182  A    between atoms: _497  and  _498
REMARK  183  A    between atoms: _501  and  _503
REMARK  184  A    between atoms: _503  and  _504
REMARK  185  A    between atoms: _503  and  _506
REMARK  186  A    between atoms: _506  and  _507
REMARK  187  A    between atoms: _509  and  _511
REMARK  188  A    between atoms: _511  and  _512
REMARK  189  A    between atoms: _514  and  _516
REMARK  190  A    between atoms: _516  and  _517
REMARK  191  A    between atoms: _516  and  _519
REMARK  192  A    between atoms: _519  and  _520
REMARK  193  A    between atoms: _520  and  _521
REMARK  194  A    between atoms: _527  and  _528
REMARK  195  A    between atoms: _533  and  _535
REMARK  196  A    between atoms: _535  and  _536
REMARK  197  A    between atoms: _535  and  _538
REMARK  198  A    between atoms: _538  and  _539
REMARK  199  A    between atoms: _544  and  _545
REMARK  200  A    between atoms: _547  and  _549
REMARK  201  A    between atoms: _549  and  _550
REMARK  202  A    between atoms: _549  and  _552
REMARK  203  A    between atoms: _552  and  _553
REMARK  204  A    between atoms: _553  and  _554
REMARK  205  A    between atoms: _554  and  _555
REMARK  206  A    between atoms: _564  and  _566
REMARK  207  A    between atoms: _566  and  _567
REMARK  208  A    between atoms: _566  and  _569
REMARK  209  A    between atoms: _569  and  _570
REMARK  210  A    between atoms: _575  and  _576
REMARK  211  A    between atoms: _578  and  _580
REMARK  212  A    between atoms: _580  and  _581
REMARK  213  A    between atoms: _580  and  _583
REMARK  214  A    between atoms: _583  and  _584
REMARK  215  A    between atoms: _584  and  _585
REMARK  216  A    between atoms: _588  and  _590
REMARK  217  A    between atoms: _590  and  _591
REMARK  218  A    between atoms: _590  and  _593
REMARK  219  A    between atoms: _593  and  _594
REMARK  220  A    between atoms: _594  and  _595
REMARK  221  A    between atoms: _595  and  _596
REMARK                            x       y       z     vdW  Elec       q    Type
REMARK                         _______ _______ _______ _____ _____    ______ ____
ROOT
ATOM      1  CB  PHE A   1      -2.201  13.849 -12.356  0.00  0.00    +0.051 C 
ENDROOT
BRANCH   1   2
ATOM      2  CG  PHE A   1      -3.459  13.068 -12.109  0.00  0.00    -0.020 A 
ATOM      3  CD2 PHE A   1      -4.662  13.721 -11.895  0.00  0.00    -0.004 A 
ATOM      4  CE2 PHE A   1      -5.823  13.009 -11.665  0.00  0.00    -0.000 A 
ATOM      5  CZ  PHE A   1      -5.786  11.631 -11.635  0.00  0.00    -0.000 A 
ATOM      6  CE1 PHE A   1      -4.594  10.969 -11.844  0.00  0.00    -0.000 A 
ATOM      7  CD1 PHE A   1      -3.438  11.687 -12.078  0.00  0.00    -0.004 A 
ENDBRANCH   1   2
BRANCH   1   8
ATOM      8  CA  PHE A   1      -2.446  15.328 -12.645  0.00  0.00    +0.137 C 
BRANCH   8   9
ATOM      9  N   PHE A   1      -3.186  15.481 -13.889  0.00  0.00    -0.239 NA
ATOM     10  H   PHE A   1      -3.378  14.638 -14.467  0.00  0.00    +0.142 HD
ENDBRANCH   8   9
BRANCH   8  11
ATOM     11  C   PHE A   1      -1.118  16.081 -12.682  0.00  0.00    +0.224 C 
ATOM     12  O   PHE A   1      -0.709  16.684 -11.698  0.00  0.00    -0.287 OA
ENDBRANCH   8  11
ENDBRANCH   1   8
TORSDOF 4
REMARK  Name = ../refined-set-2016/4zb8/4zb8_pocket.pdb
REMARK  221 active torsions:
REMARK  status: ('A' for Active; 'I' for Inactive)
REMARK    1  A    between atoms: _1  and  _3
REMARK    2  A    between atoms: _3  and  _4
REMARK    3  A    between atoms: _3  and  _6
REMARK    4  A    between atoms: _6  and  _7
REMARK    5  A    between atoms: _12  and  _13
REMARK    6  A    between atoms: _15  and  _17
REMARK    7  A    between atoms: _17  and  _18
REMARK    8  A    between atoms: _17  and  _20
REMARK    9  A    between atoms: _20  and  _21
REMARK   10  A    between atoms: _24  and  _26
REMARK   11  A    between atoms: _26  and  _27
REMARK   12  A    between atoms: _26  and  _29
REMARK   13  A    between atoms: _29  and  _30
REMARK   14  A    between atoms: _35  and  _37
REMARK   15  A    between atoms: _37  and  _38
REMARK   16  A    between atoms: _40  and  _42
REMARK   17  A    between atoms: _42  and  _43
REMARK   18  A    between atoms: _46  and  _47
REMARK   19  A    between atoms: _52  and  _54
REMARK   20  A    between atoms: _54  and  _55
REMARK   21  A    between atoms: _54  and  _57
REMARK   22  A    between atoms: _57  and  _58
REMARK   23  A    between atoms: _63  and  _65
REMARK   24  A    between atoms: _65  and  _66
REMARK   25  A    between atoms: _68  and  _70
REMARK   26  A    between atoms: _70  and  _71
REMARK   27  A    between atoms: _70  and  _73
REMARK   28  A    between atoms: _73  and  _74
REMARK   29  A    between atoms: _84  and  _86
REMARK   30  A    between atoms: _86  and  _87
REMARK   31  A    between atoms: _86  and  _89
REMARK   32  A    between atoms: _89  and  _90
REMARK   33  A    between atoms: _90  and  _91
REMARK   34  A    between atoms: _91  and  _92
REMARK   35  A    between atoms: _92  and  _93
REMARK   36  A    between atoms: _97  and  _99
REMARK   37  A    between atoms: _99  and  _100
REMARK   38  A    between atoms: _99  and  _102
REMARK   39  A    between atoms: _105  and  _107
REMARK   40  A    between atoms: _107  and  _108
REMARK   41  A    between atoms: _107  and  _110
REMARK   42  A    between atoms: _110  and  _111
REMARK   43  A    between atoms: _114  and  _116
REMARK   44  A    between atoms: _116  and  _117
REMARK   45  A    between atoms: _116  and  _119
REMARK   46  A    between atoms: _119  and  _120
REMARK   47  A    between atoms: _126  and  _128
REMARK   48  A    between atoms: _128  and  _129
REMARK   49  A    between atoms: _128  and  _131
REMARK   50  A    between atoms: _131  and  _132
REMARK   51  A    between atoms: _137  and  _139
REMARK   52  A    between atoms: _139  and  _140
REMARK   53  A    between atoms: _139  and  _142
REMARK   54  A    between atoms: _142  and  _143
REMARK   55  A    between atoms: _143  and  _144
REMARK   56  A    between atoms: _144  and  _145
REMARK   57  A    between atoms: _145  and  _146
REMARK   58  A    between atoms: _150  and  _152
REMARK   59  A    between atoms: _152  and  _153
REMARK   60  A    between atoms: _152  and  _155
REMARK   61  A    between atoms: _155  and  _156
REMARK   62  A    between atoms: _161  and  _162
REMARK   63  A    between atoms: _164  and  _166
REMARK   64  A    between atoms: _166  and  _167
REMARK   65  A    between atoms: _166  and  _169
REMARK   66  A    between atoms: _169  and  _170
REMARK   67  A    between atoms: _175  and  _177
REMARK   68  A    between atoms: _177  and  _178
REMARK   69  A    between atoms: _177  and  _180
REMARK   70  A    between atoms: _180  and  _181
REMARK   71  A    between atoms: _186  and  _188
REMARK   72  A    between atoms: _188  and  _189
REMARK   73  A    between atoms: _191  and  _193
REMARK   74  A    between atoms: _193  and  _194
REMARK   75  A    between atoms: _193  and  _196
REMARK   76  A    between atoms: _196  and  _197
REMARK   77  A    between atoms: _197  and  _198
REMARK   78  A    between atoms: _198  and  _199
REMARK   79  A    between atoms: _208  and  _210
REMARK   80  A    between atoms: _210  and  _211
REMARK   81  A    between atoms: _210  and  _213
REMARK   82  A    between atoms: _213  and  _214
REMARK   83  A    between atoms: _218  and  _219
REMARK   84  A    between atoms: _224  and  _226
REMARK   85  A    between atoms: _226  and  _227
REMARK   86  A    between atoms: _230  and  _232
REMARK   87  A    between atoms: _232  and  _233
REMARK   88  A    between atoms: _232  and  _235
REMARK   89  A    between atoms: _235  and  _236
REMARK   90  A    between atoms: _246  and  _248
REMARK   91  A    between atoms: _248  and  _249
REMARK   92  A    between atoms: _248  and  _251
REMARK   93  A    between atoms: _251  and  _252
REMARK   94  A    between atoms: _252  and  _253
REMARK   95  A    between atoms: _256  and  _258
REMARK   96  A    between atoms: _258  and  _259
REMARK   97  A    between atoms: _258  and  _261
REMARK   98  A    between atoms: _261  and  _262
REMARK   99  A    between atoms: _264  and  _266
REMARK  100  A    between atoms: _266  and  _267
REMARK  101  A    between atoms: _266  and  _269
REMARK  102  A    between atoms: _269  and  _270
REMARK  103  A    between atoms: _275  and  _277
REMARK  104  A    between atoms: _277  and  _278
REMARK  105  A    between atoms: _281  and  _283
REMARK  106  A    between atoms: _283  and  _284
REMARK  107  A    between atoms: _283  and  _286
REMARK  108  A    between atoms: _286  and  _287
REMARK  109  A    between atoms: _290  and  _292
REMARK  110  A    between atoms: _292  and  _293
REMARK  111  A    between atoms: _292  and  _295
REMARK  112  A    between atoms: _295  and  _296
REMARK  113  A    between atoms: _299  and  _301
REMARK  114  A    between atoms: _301  and  _302
REMARK  115  A    between atoms: _301  and  _304
REMARK  116  A    between atoms: _304  and  _305
REMARK  117  A    between atoms: _305  and  _306
REMARK  118  A    between atoms: _311  and  _313
REMARK  119  A    between atoms: _313  and  _314
REMARK  120  A    between atoms: _317  and  _319
REMARK  121  A    between atoms: _319  and  _320
REMARK  122  A    between atoms: _319  and  _322
REMARK  123  A    between atoms: _322  and  _323
REMARK  124  A    between atoms: _325  and  _327
REMARK  125  A    between atoms: _327  and  _328
REMARK  126  A    between atoms: _330  and  _332
REMARK  127  A    between atoms: _332  and  _333
REMARK  128  A    between atoms: _332  and  _335
REMARK  129  A    between atoms: _335  and  _336
REMARK  130  A    between atoms: _336  and  _337
REMARK  131  A    between atoms: _342  and  _344
REMARK  132  A    between atoms: _344  and  _345
REMARK  133  A    between atoms: _348  and  _349
REMARK  134  A    between atoms: _354  and  _356
REMARK  135  A    between atoms: _356  and  _357
REMARK  136  A    between atoms: _356  and  _359
REMARK  137  A    between atoms: _359  and  _360
REMARK  138  A    between atoms: _365  and  _366
REMARK  139  A    between atoms: _368  and  _370
REMARK  140  A    between atoms: _370  and  _371
REMARK  141  A    between atoms: _370  and  _373
REMARK  142  A    between atoms: _373  and  _374
REMARK  143  A    between atoms: _379  and  _380
REMARK  144  A    between atoms: _382  and  _384
REMARK  145  A    between atoms: _384  and  _385
REMARK  146  A    between atoms: _387  and  _389
REMARK  147  A    between atoms: _389  and  _390
REMARK  148  A    between atoms: _389  and  _392
REMARK  149  A    between atoms: _392  and  _393
REMARK  150  A    between atoms: _393  and  _394
REMARK  151  A    between atoms: _399  and  _401
REMARK  152  A    between atoms: _401  and  _402
REMARK  153  A    between atoms: _405  and  _407
REMARK  154  A    between atoms: _407  and  _408
REMARK  155  A    between atoms: _411  and  _413
REMARK  156  A    between atoms: _413  and  _414
REMARK  157  A    between atoms: _413  and  _416
REMARK  158  A    between atoms: _416  and  _417
REMARK  159  A    between atoms: _427  and  _429
REMARK  160  A    between atoms: _429  and  _430
REMARK  161  A    between atoms: _429  and  _432
REMARK  162  A    between atoms: _432  and  _433
REMARK  163  A    between atoms: _439  and  _441
REMARK  164  A    between atoms: _441  and  _442
REMARK  165  A    between atoms: _441  and  _444
REMARK  166  A    between atoms: _444  and  _445
REMARK  167  A    between atoms: _450  and  _451
REMARK  168  A    between atoms: _453  and  _455
REMARK  169  A    between atoms: _455  and  _456
REMARK  170  A    between atoms: _455  and  _458
REMARK  171  A    between atoms: _458  and  _459
REMARK  172  A    between atoms: _469  and  _471
REMARK  173  A    between atoms: _471  and  _472
REMARK  174  A    between atoms: _471  and  _474
REMARK  175  A    between atoms: _474  and  _475
REMARK  176  A    between atoms: _480  and  _481
REMARK  177  A    between atoms: _483  and  _485
REMARK  178  A    between atoms: _485  and  _486
REMARK  179  A    between atoms: _485  and  _488
REMARK  180  A    between atoms: _488  and  _489
REMARK  181  A    between atoms: _495  and  _497
REMARK  182  A    between atoms: _497  and  _498
REMARK  183  A    between atoms: _501  and  _503
REMARK  184  A    between atoms: _503  and  _504
REMARK  185  A    between atoms: _503  and  _506
REMARK  186  A    between atoms: _506  and  _507
REMARK  187  A    between atoms: _509  and  _511
REMARK  188  A    between atoms: _511  and  _512
REMARK  189  A    between atoms: _514  and  _516
REMARK  190  A    between atoms: _516  and  _517
REMARK  191  A    between atoms: _516  and  _519
REMARK  192  A    between atoms: _519  and  _520
REMARK  193  A    between atoms: _520  and  _521
REMARK  194  A    between atoms: _527  and  _528
REMARK  195  A    between atoms: _533  and  _535
REMARK  196  A    between atoms: _535  and  _536
REMARK  197  A    between atoms: _535  and  _538
REMARK  198  A    between atoms: _538  and  _539
REMARK  199  A    between atoms: _544  and  _545
REMARK  200  A    between atoms: _547  and  _549
REMARK  201  A    between atoms: _549  and  _550
REMARK  202  A    between atoms: _549  and  _552
REMARK  203  A    between atoms: _552  and  _553
REMARK  204  A    between atoms: _553  and  _554
REMARK  205  A    between atoms: _554  and  _555
REMARK  206  A    between atoms: _564  and  _566
REMARK  207  A    between atoms: _566  and  _567
REMARK  208  A    between atoms: _566  and  _569
REMARK  209  A    between atoms: _569  and  _570
REMARK  210  A    between atoms: _575  and  _576
REMARK  211  A    between atoms: _578  and  _580
REMARK  212  A    between atoms: _580  and  _581
REMARK  213  A    between atoms: _580  and  _583
REMARK  214  A    between atoms: _583  and  _584
REMARK  215  A    between atoms: _584  and  _585
REMARK  216  A    between atoms: _588  and  _590
REMARK  217  A    between atoms: _590  and  _591
REMARK  218  A    between atoms: _590  and  _593
REMARK  219  A    between atoms: _593  and  _594
REMARK  220  A    between atoms: _594  and  _595
REMARK  221  A    between atoms: _595  and  _596
REMARK                            x       y       z     vdW  Elec       q    Type
REMARK                         _______ _______ _______ _____ _____    ______ ____
ROOT
ATOM      1  C   HIS A   1      -6.645  17.728  -7.526  0.00  0.00    +0.239 C 
ATOM      2  O   HIS A   1      -7.359  17.308  -6.597  0.00  0.00    -0.274 OA
ATOM      3  N   LYS A   2      -5.694  18.632  -7.333  0.00  0.00    -0.298 N 
ATOM      4  H   LYS A   2      -5.104  18.950  -8.129  0.00  0.00    +0.150 HD
ENDROOT
BRANCH   1   5
ATOM      5  CA  HIS A   1      -6.827  17.210  -8.924  0.00  0.00    +0.151 C 
BRANCH   5   6
ATOM      6  N   HIS A   1      -6.089  17.989  -9.903  0.00  0.00    -0.238 NA
ATOM      7  H   HIS A   1      -5.177  17.635 -10.256  0.00  0.00    +0.142 HD
ENDBRANCH   5   6
BRANCH   5   8
ATOM      8  CB  HIS A   1      -6.426  15.743  -8.979  0.00  0.00    +0.074 C 
BRANCH   8   9
ATOM      9  CG  HIS A   1      -4.957  15.505  -8.740  0.00  0.00    +0.082 A 
ATOM     10  CD2 HIS A   1      -4.301  14.607  -7.910  0.00  0.00    +0.115 A 
ATOM     11  NE2 HIS A   1      -2.982  14.803  -8.069  0.00  0.00    -0.221 NA
ATOM     12  CE1 HIS A   1      -2.799  15.783  -8.961  0.00  0.00    +0.199 A 
ATOM     13  ND1 HIS A   1      -4.004  16.206  -9.367  0.00  0.00    -0.227 NA
ENDBRANCH   8   9
ENDBRANCH   5   8
ENDBRANCH   1   5
BRANCH   3  14
ATOM     14  CA  LYS A   2      -5.481  19.177  -5.999  0.00  0.00    +0.137 C 
BRANCH  14  15
ATOM     15  C   LYS A   2      -5.881  20.648  -5.910  0.00  0.00    +0.227 C 
ATOM     16  O   LYS A   2      -5.632  21.309  -4.908  0.00  0.00    -0.286 OA
ENDBRANCH  14  15
BRANCH  14  17
ATOM     17  CB  LYS A   2      -4.046  18.945  -5.528  0.00  0.00    +0.028 C 
BRANCH  17  18
ATOM     18  CG  LYS A   2      -3.599  17.489  -5.564  0.00  0.00    -0.000 C 
BRANCH  18  19
ATOM     19  CD  LYS A   2      -4.504  16.588  -4.731  0.00  0.00    -0.024 C 
BRANCH  19  20
ATOM     20  CE  LYS A   2      -3.877  15.217  -4.502  0.00  0.00    -0.086 C 
BRANCH  20  21
ATOM     21  NZ  LYS A   2      -4.740  14.307  -3.705  0.00  0.00    +0.380 N 
ATOM     22  HZ1 LYS A   2      -4.921  14.731  -2.773  0.00  0.00    -0.089 HD
ATOM     23  HZ2 LYS A   2      -4.259  13.393  -3.584  0.00  0.00    -0.089 HD
ATOM     24  HZ3 LYS A   2      -5.642  14.163  -4.202  0.00  0.00    -0.089 HD
ENDBRANCH  20  21
ENDBRANCH  19  20
ENDBRANCH  18  19
ENDBRANCH  17  18
ENDBRANCH  14  17
ENDBRANCH   3  14
TORSDOF 11
REMARK  Name = ../refined-set-2016/4zb8/4zb8_pocket.pdb
REMARK  221 active torsions:
REMARK  status: ('A' for Active; 'I' for Inactive)
REMARK    1  A    between atoms: _1  and  _3
REMARK    2  A    between atoms: _3  and  _4
REMARK    3  A    between atoms: _3  and  _6
REMARK    4  A    between atoms: _6  and  _7
REMARK    5  A    between atoms: _12  and  _13
REMARK    6  A    between atoms: _15  and  _17
REMARK    7  A    between atoms: _17  and  _18
REMARK    8  A    between atoms: _17  and  _20
REMARK    9  A    between atoms: _20  and  _21
REMARK   10  A    between atoms: _24  and  _26
REMARK   11  A    between atoms: _26  and  _27
REMARK   12  A    between atoms: _26  and  _29
REMARK   13  A    between atoms: _29  and  _30
REMARK   14  A    between atoms: _35  and  _37
REMARK   15  A    between atoms: _37  and  _38
REMARK   16  A    between atoms: _40  and  _42
REMARK   17  A    between atoms: _42  and  _43
REMARK   18  A    between atoms: _46  and  _47
REMARK   19  A    between atoms: _52  and  _54
REMARK   20  A    between atoms: _54  and  _55
REMARK   21  A    between atoms: _54  and  _57
REMARK   22  A    between atoms: _57  and  _58
REMARK   23  A    between atoms: _63  and  _65
REMARK   24  A    between atoms: _65  and  _66
REMARK   25  A    between atoms: _68  and  _70
REMARK   26  A    between atoms: _70  and  _71
REMARK   27  A    between atoms: _70  and  _73
REMARK   28  A    between atoms: _73  and  _74
REMARK   29  A    between atoms: _84  and  _86
REMARK   30  A    between atoms: _86  and  _87
REMARK   31  A    between atoms: _86  and  _89
REMARK   32  A    between atoms: _89  and  _90
REMARK   33  A    between atoms: _90  and  _91
REMARK   34  A    between atoms: _91  and  _92
REMARK   35  A    between atoms: _92  and  _93
REMARK   36  A    between atoms: _97  and  _99
REMARK   37  A    between atoms: _99  and  _100
REMARK   38  A    between atoms: _99  and  _102
REMARK   39  A    between atoms: _105  and  _107
REMARK   40  A    between atoms: _107  and  _108
REMARK   41  A    between atoms: _107  and  _110
REMARK   42  A    between atoms: _110  and  _111
REMARK   43  A    between atoms: _114  and  _116
REMARK   44  A    between atoms: _116  and  _117
REMARK   45  A    between atoms: _116  and  _119
REMARK   46  A    between atoms: _119  and  _120
REMARK   47  A    between atoms: _126  and  _128
REMARK   48  A    between atoms: _128  and  _129
REMARK   49  A    between atoms: _128  and  _131
REMARK   50  A    between atoms: _131  and  _132
REMARK   51  A    between atoms: _137  and  _139
REMARK   52  A    between atoms: _139  and  _140
REMARK   53  A    between atoms: _139  and  _142
REMARK   54  A    between atoms: _142  and  _143
REMARK   55  A    between atoms: _143  and  _144
REMARK   56  A    between atoms: _144  and  _145
REMARK   57  A    between atoms: _145  and  _146
REMARK   58  A    between atoms: _150  and  _152
REMARK   59  A    between atoms: _152  and  _153
REMARK   60  A    between atoms: _152  and  _155
REMARK   61  A    between atoms: _155  and  _156
REMARK   62  A    between atoms: _161  and  _162
REMARK   63  A    between atoms: _164  and  _166
REMARK   64  A    between atoms: _166  and  _167
REMARK   65  A    between atoms: _166  and  _169
REMARK   66  A    between atoms: _169  and  _170
REMARK   67  A    between atoms: _175  and  _177
REMARK   68  A    between atoms: _177  and  _178
REMARK   69  A    between atoms: _177  and  _180
REMARK   70  A    between atoms: _180  and  _181
REMARK   71  A    between atoms: _186  and  _188
REMARK   72  A    between atoms: _188  and  _189
REMARK   73  A    between atoms: _191  and  _193
REMARK   74  A    between atoms: _193  and  _194
REMARK   75  A    between atoms: _193  and  _196
REMARK   76  A    between atoms: _196  and  _197
REMARK   77  A    between atoms: _197  and  _198
REMARK   78  A    between atoms: _198  and  _199
REMARK   79  A    between atoms: _208  and  _210
REMARK   80  A    between atoms: _210  and  _211
REMARK   81  A    between atoms: _210  and  _213
REMARK   82  A    between atoms: _213  and  _214
REMARK   83  A    between atoms: _218  and  _219
REMARK   84  A    between atoms: _224  and  _226
REMARK   85  A    between atoms: _226  and  _227
REMARK   86  A    between atoms: _230  and  _232
REMARK   87  A    between atoms: _232  and  _233
REMARK   88  A    between atoms: _232  and  _235
REMARK   89  A    between atoms: _235  and  _236
REMARK   90  A    between atoms: _246  and  _248
REMARK   91  A    between atoms: _248  and  _249
REMARK   92  A    between atoms: _248  and  _251
REMARK   93  A    between atoms: _251  and  _252
REMARK   94  A    between atoms: _252  and  _253
REMARK   95  A    between atoms: _256  and  _258
REMARK   96  A    between atoms: _258  and  _259
REMARK   97  A    between atoms: _258  and  _261
REMARK   98  A    between atoms: _261  and  _262
REMARK   99  A    between atoms: _264  and  _266
REMARK  100  A    between atoms: _266  and  _267
REMARK  101  A    between atoms: _266  and  _269
REMARK  102  A    between atoms: _269  and  _270
REMARK  103  A    between atoms: _275  and  _277
REMARK  104  A    between atoms: _277  and  _278
REMARK  105  A    between atoms: _281  and  _283
REMARK  106  A    between atoms: _283  and  _284
REMARK  107  A    between atoms: _283  and  _286
REMARK  108  A    between atoms: _286  and  _287
REMARK  109  A    between atoms: _290  and  _292
REMARK  110  A    between atoms: _292  and  _293
REMARK  111  A    between atoms: _292  and  _295
REMARK  112  A    between atoms: _295  and  _296
REMARK  113  A    between atoms: _299  and  _301
REMARK  114  A    between atoms: _301  and  _302
REMARK  115  A    between atoms: _301  and  _304
REMARK  116  A    between atoms: _304  and  _305
REMARK  117  A    between atoms: _305  and  _306
REMARK  118  A    between atoms: _311  and  _313
REMARK  119  A    between atoms: _313  and  _314
REMARK  120  A    between atoms: _317  and  _319
REMARK  121  A    between atoms: _319  and  _320
REMARK  122  A    between atoms: _319  and  _322
REMARK  123  A    between atoms: _322  and  _323
REMARK  124  A    between atoms: _325  and  _327
REMARK  125  A    between atoms: _327  and  _328
REMARK  126  A    between atoms: _330  and  _332
REMARK  127  A    between atoms: _332  and  _333
REMARK  128  A    between atoms: _332  and  _335
REMARK  129  A    between atoms: _335  and  _336
REMARK  130  A    between atoms: _336  and  _337
REMARK  131  A    between atoms: _342  and  _344
REMARK  132  A    between atoms: _344  and  _345
REMARK  133  A    between atoms: _348  and  _349
REMARK  134  A    between atoms: _354  and  _356
REMARK  135  A    between atoms: _356  and  _357
REMARK  136  A    between atoms: _356  and  _359
REMARK  137  A    between atoms: _359  and  _360
REMARK  138  A    between atoms: _365  and  _366
REMARK  139  A    between atoms: _368  and  _370
REMARK  140  A    between atoms: _370  and  _371
REMARK  141  A    between atoms: _370  and  _373
REMARK  142  A    between atoms: _373  and  _374
REMARK  143  A    between atoms: _379  and  _380
REMARK  144  A    between atoms: _382  and  _384
REMARK  145  A    between atoms: _384  and  _385
REMARK  146  A    between atoms: _387  and  _389
REMARK  147  A    between atoms: _389  and  _390
REMARK  148  A    between atoms: _389  and  _392
REMARK  149  A    between atoms: _392  and  _393
REMARK  150  A    between atoms: _393  and  _394
REMARK  151  A    between atoms: _399  and  _401
REMARK  152  A    between atoms: _401  and  _402
REMARK  153  A    between atoms: _405  and  _407
REMARK  154  A    between atoms: _407  and  _408
REMARK  155  A    between atoms: _411  and  _413
REMARK  156  A    between atoms: _413  and  _414
REMARK  157  A    between atoms: _413  and  _416
REMARK  158  A    between atoms: _416  and  _417
REMARK  159  A    between atoms: _427  and  _429
REMARK  160  A    between atoms: _429  and  _430
REMARK  161  A    between atoms: _429  and  _432
REMARK  162  A    between atoms: _432  and  _433
REMARK  163  A    between atoms: _439  and  _441
REMARK  164  A    between atoms: _441  and  _442
REMARK  165  A    between atoms: _441  and  _444
REMARK  166  A    between atoms: _444  and  _445
REMARK  167  A    between atoms: _450  and  _451
REMARK  168  A    between atoms: _453  and  _455
REMARK  169  A    between atoms: _455  and  _456
REMARK  170  A    between atoms: _455  and  _458
REMARK  171  A    between atoms: _458  and  _459
REMARK  172  A    between atoms: _469  and  _471
REMARK  173  A    between atoms: _471  and  _472
REMARK  174  A    between atoms: _471  and  _474
REMARK  175  A    between atoms: _474  and  _475
REMARK  176  A    between atoms: _480  and  _481
REMARK  177  A    between atoms: _483  and  _485
REMARK  178  A    between atoms: _485  and  _486
REMARK  179  A    between atoms: _485  and  _488
REMARK  180  A    between atoms: _488  and  _489
REMARK  181  A    between atoms: _495  and  _497
REMARK  182  A    between atoms: _497  and  _498
REMARK  183  A    between atoms: _501  and  _503
REMARK  184  A    between atoms: _503  and  _504
REMARK  185  A    between atoms: _503  and  _506
REMARK  186  A    between atoms: _506  and  _507
REMARK  187  A    between atoms: _509  and  _511
REMARK  188  A    between atoms: _511  and  _512
REMARK  189  A    between atoms: _514  and  _516
REMARK  190  A    between atoms: _516  and  _517
REMARK  191  A    between atoms: _516  and  _519
REMARK  192  A    between atoms: _519  and  _520
REMARK  193  A    between atoms: _520  and  _521
REMARK  194  A    between atoms: _527  and  _528
REMARK  195  A    between atoms: _533  and  _535
REMARK  196  A    between atoms: _535  and  _536
REMARK  197  A    between atoms: _535  and  _538
REMARK  198  A    between atoms: _538  and  _539
REMARK  199  A    between atoms: _544  and  _545
REMARK  200  A    between atoms: _547  and  _549
REMARK  201  A    between atoms: _549  and  _550
REMARK  202  A    between atoms: _549  and  _552
REMARK  203  A    between atoms: _552  and  _553
REMARK  204  A    between atoms: _553  and  _554
REMARK  205  A    between atoms: _554  and  _555
REMARK  206  A    between atoms: _564  and  _566
REMARK  207  A    between atoms: _566  and  _567
REMARK  208  A    between atoms: _566  and  _569
REMARK  209  A    between atoms: _569  and  _570
REMARK  210  A    between atoms: _575  and  _576
REMARK  211  A    between atoms: _578  and  _580
REMARK  212  A    between atoms: _580  and  _581
REMARK  213  A    between atoms: _580  and  _583
REMARK  214  A    between atoms: _583  and  _584
REMARK  215  A    between atoms: _584  and  _585
REMARK  216  A    between atoms: _588  and  _590
REMARK  217  A    between atoms: _590  and  _591
REMARK  218  A    between atoms: _590  and  _593
REMARK  219  A    between atoms: _593  and  _594
REMARK  220  A    between atoms: _594  and  _595
REMARK  221  A    between atoms: _595  and  _596
REMARK                            x       y       z     vdW  Elec       q    Type
REMARK                         _______ _______ _______ _____ _____    ______ ____
ROOT
ATOM      1  CG  TYR A   1     -11.324  18.062  -8.354  0.00  0.00    -0.020 A 
ATOM      2  CD2 TYR A   1     -10.612  17.115  -7.637  0.00  0.00    -0.001 A 
ATOM      3  CE2 TYR A   1     -10.991  15.785  -7.646  0.00  0.00    +0.036 A 
ATOM      4  CZ  TYR A   1     -12.098  15.396  -8.367  0.00  0.00    +0.134 A 
ATOM      5  CE1 TYR A   1     -12.823  16.322  -9.080  0.00  0.00    +0.036 A 
ATOM      6  CD1 TYR A   1     -12.438  17.644  -9.065  0.00  0.00    -0.001 A 
ENDROOT
BRANCH   4   7
ATOM      7  OH  TYR A   1     -12.484  14.082  -8.383  0.00  0.00    -0.506 OA
ATOM      8  HH  TYR A   1     -12.686  13.787  -7.460  0.00  0.00    +0.292 HD
ENDBRANCH   4   7
BRANCH   1   9
ATOM      9  CB  TYR A   1     -10.927  19.514  -8.334  0.00  0.00    +0.051 C 
BRANCH   9  10
ATOM     10  CA  TYR A   1     -11.969  20.363  -7.617  0.00  0.00    +0.137 C 
BRANCH  10  11
ATOM     11  N   TYR A   1     -11.667  21.788  -7.691  0.00  0.00    -0.239 NA
ATOM     12  H   TYR A   1     -10.705  22.099  -7.935  0.00  0.00    +0.142 HD
ENDBRANCH  10  11
BRANCH  10  13
ATOM     13  C   TYR A   1     -12.136  19.856  -6.186  0.00  0.00    +0.224 C 
ATOM     14  O   TYR A   1     -13.039  19.078  -5.906  0.00  0.00    -0.287 OA
ENDBRANCH  10  13
ENDBRANCH   9  10
ENDBRANCH   1   9
TORSDOF 5
REMARK  Name = ../refined-set-2016/4zb8/4zb8_pocket.pdb
REMARK  221 active torsions:
REMARK  status: ('A' for Active; 'I' for Inactive)
REMARK    1  A    between atoms: _1  and  _3
REMARK    2  A    between atoms: _3  and  _4
REMARK    3  A    between atoms: _3  and  _6
REMARK    4  A    between atoms: _6  and  _7
REMARK    5  A    between atoms: _12  and  _13
REMARK    6  A    between atoms: _15  and  _17
REMARK    7  A    between atoms: _17  and  _18
REMARK    8  A    between atoms: _17  and  _20
REMARK    9  A    between atoms: _20  and  _21
REMARK   10  A    between atoms: _24  and  _26
REMARK   11  A    between atoms: _26  and  _27
REMARK   12  A    between atoms: _26  and  _29
REMARK   13  A    between atoms: _29  and  _30
REMARK   14  A    between atoms: _35  and  _37
REMARK   15  A    between atoms: _37  and  _38
REMARK   16  A    between atoms: _40  and  _42
REMARK   17  A    between atoms: _42  and  _43
REMARK   18  A    between atoms: _46  and  _47
REMARK   19  A    between atoms: _52  and  _54
REMARK   20  A    between atoms: _54  and  _55
REMARK   21  A    between atoms: _54  and  _57
REMARK   22  A    between atoms: _57  and  _58
REMARK   23  A    between atoms: _63  and  _65
REMARK   24  A    between atoms: _65  and  _66
REMARK   25  A    between atoms: _68  and  _70
REMARK   26  A    between atoms: _70  and  _71
REMARK   27  A    between atoms: _70  and  _73
REMARK   28  A    between atoms: _73  and  _74
REMARK   29  A    between atoms: _84  and  _86
REMARK   30  A    between atoms: _86  and  _87
REMARK   31  A    between atoms: _86  and  _89
REMARK   32  A    between atoms: _89  and  _90
REMARK   33  A    between atoms: _90  and  _91
REMARK   34  A    between atoms: _91  and  _92
REMARK   35  A    between atoms: _92  and  _93
REMARK   36  A    between atoms: _97  and  _99
REMARK   37  A    between atoms: _99  and  _100
REMARK   38  A    between atoms: _99  and  _102
REMARK   39  A    between atoms: _105  and  _107
REMARK   40  A    between atoms: _107  and  _108
REMARK   41  A    between atoms: _107  and  _110
REMARK   42  A    between atoms: _110  and  _111
REMARK   43  A    between atoms: _114  and  _116
REMARK   44  A    between atoms: _116  and  _117
REMARK   45  A    between atoms: _116  and  _119
REMARK   46  A    between atoms: _119  and  _120
REMARK   47  A    between atoms: _126  and  _128
REMARK   48  A    between atoms: _128  and  _129
REMARK   49  A    between atoms: _128  and  _131
REMARK   50  A    between atoms: _131  and  _132
REMARK   51  A    between atoms: _137  and  _139
REMARK   52  A    between atoms: _139  and  _140
REMARK   53  A    between atoms: _139  and  _142
REMARK   54  A    between atoms: _142  and  _143
REMARK   55  A    between atoms: _143  and  _144
REMARK   56  A    between atoms: _144  and  _145
REMARK   57  A    between atoms: _145  and  _146
REMARK   58  A    between atoms: _150  and  _152
REMARK   59  A    between atoms: _152  and  _153
REMARK   60  A    between atoms: _152  and  _155
REMARK   61  A    between atoms: _155  and  _156
REMARK   62  A    between atoms: _161  and  _162
REMARK   63  A    between atoms: _164  and  _166
REMARK   64  A    between atoms: _166  and  _167
REMARK   65  A    between atoms: _166  and  _169
REMARK   66  A    between atoms: _169  and  _170
REMARK   67  A    between atoms: _175  and  _177
REMARK   68  A    between atoms: _177  and  _178
REMARK   69  A    between atoms: _177  and  _180
REMARK   70  A    between atoms: _180  and  _181
REMARK   71  A    between atoms: _186  and  _188
REMARK   72  A    between atoms: _188  and  _189
REMARK   73  A    between atoms: _191  and  _193
REMARK   74  A    between atoms: _193  and  _194
REMARK   75  A    between atoms: _193  and  _196
REMARK   76  A    between atoms: _196  and  _197
REMARK   77  A    between atoms: _197  and  _198
REMARK   78  A    between atoms: _198  and  _199
REMARK   79  A    between atoms: _208  and  _210
REMARK   80  A    between atoms: _210  and  _211
REMARK   81  A    between atoms: _210  and  _213
REMARK   82  A    between atoms: _213  and  _214
REMARK   83  A    between atoms: _218  and  _219
REMARK   84  A    between atoms: _224  and  _226
REMARK   85  A    between atoms: _226  and  _227
REMARK   86  A    between atoms: _230  and  _232
REMARK   87  A    between atoms: _232  and  _233
REMARK   88  A    between atoms: _232  and  _235
REMARK   89  A    between atoms: _235  and  _236
REMARK   90  A    between atoms: _246  and  _248
REMARK   91  A    between atoms: _248  and  _249
REMARK   92  A    between atoms: _248  and  _251
REMARK   93  A    between atoms: _251  and  _252
REMARK   94  A    between atoms: _252  and  _253
REMARK   95  A    between atoms: _256  and  _258
REMARK   96  A    between atoms: _258  and  _259
REMARK   97  A    between atoms: _258  and  _261
REMARK   98  A    between atoms: _261  and  _262
REMARK   99  A    between atoms: _264  and  _266
REMARK  100  A    between atoms: _266  and  _267
REMARK  101  A    between atoms: _266  and  _269
REMARK  102  A    between atoms: _269  and  _270
REMARK  103  A    between atoms: _275  and  _277
REMARK  104  A    between atoms: _277  and  _278
REMARK  105  A    between atoms: _281  and  _283
REMARK  106  A    between atoms: _283  and  _284
REMARK  107  A    between atoms: _283  and  _286
REMARK  108  A    between atoms: _286  and  _287
REMARK  109  A    between atoms: _290  and  _292
REMARK  110  A    between atoms: _292  and  _293
REMARK  111  A    between atoms: _292  and  _295
REMARK  112  A    between atoms: _295  and  _296
REMARK  113  A    between atoms: _299  and  _301
REMARK  114  A    between atoms: _301  and  _302
REMARK  115  A    between atoms: _301  and  _304
REMARK  116  A    between atoms: _304  and  _305
REMARK  117  A    between atoms: _305  and  _306
REMARK  118  A    between atoms: _311  and  _313
REMARK  119  A    between atoms: _313  and  _314
REMARK  120  A    between atoms: _317  and  _319
REMARK  121  A    between atoms: _319  and  _320
REMARK  122  A    between atoms: _319  and  _322
REMARK  123  A    between atoms: _322  and  _323
REMARK  124  A    between atoms: _325  and  _327
REMARK  125  A    between atoms: _327  and  _328
REMARK  126  A    between atoms: _330  and  _332
REMARK  127  A    between atoms: _332  and  _333
REMARK  128  A    between atoms: _332  and  _335
REMARK  129  A    between atoms: _335  and  _336
REMARK  130  A    between atoms: _336  and  _337
REMARK  131  A    between atoms: _342  and  _344
REMARK  132  A    between atoms: _344  and  _345
REMARK  133  A    between atoms: _348  and  _349
REMARK  134  A    between atoms: _354  and  _356
REMARK  135  A    between atoms: _356  and  _357
REMARK  136  A    between atoms: _356  and  _359
REMARK  137  A    between atoms: _359  and  _360
REMARK  138  A    between atoms: _365  and  _366
REMARK  139  A    between atoms: _368  and  _370
REMARK  140  A    between atoms: _370  and  _371
REMARK  141  A    between atoms: _370  and  _373
REMARK  142  A    between atoms: _373  and  _374
REMARK  143  A    between atoms: _379  and  _380
REMARK  144  A    between atoms: _382  and  _384
REMARK  145  A    between atoms: _384  and  _385
REMARK  146  A    between atoms: _387  and  _389
REMARK  147  A    between atoms: _389  and  _390
REMARK  148  A    between atoms: _389  and  _392
REMARK  149  A    between atoms: _392  and  _393
REMARK  150  A    between atoms: _393  and  _394
REMARK  151  A    between atoms: _399  and  _401
REMARK  152  A    between atoms: _401  and  _402
REMARK  153  A    between atoms: _405  and  _407
REMARK  154  A    between atoms: _407  and  _408
REMARK  155  A    between atoms: _411  and  _413
REMARK  156  A    between atoms: _413  and  _414
REMARK  157  A    between atoms: _413  and  _416
REMARK  158  A    between atoms: _416  and  _417
REMARK  159  A    between atoms: _427  and  _429
REMARK  160  A    between atoms: _429  and  _430
REMARK  161  A    between atoms: _429  and  _432
REMARK  162  A    between atoms: _432  and  _433
REMARK  163  A    between atoms: _439  and  _441
REMARK  164  A    between atoms: _441  and  _442
REMARK  165  A    between atoms: _441  and  _444
REMARK  166  A    between atoms: _444  and  _445
REMARK  167  A    between atoms: _450  and  _451
REMARK  168  A    between atoms: _453  and  _455
REMARK  169  A    between atoms: _455  and  _456
REMARK  170  A    between atoms: _455  and  _458
REMARK  171  A    between atoms: _458  and  _459
REMARK  172  A    between atoms: _469  and  _471
REMARK  173  A    between atoms: _471  and  _472
REMARK  174  A    between atoms: _471  and  _474
REMARK  175  A    between atoms: _474  and  _475
REMARK  176  A    between atoms: _480  and  _481
REMARK  177  A    between atoms: _483  and  _485
REMARK  178  A    between atoms: _485  and  _486
REMARK  179  A    between atoms: _485  and  _488
REMARK  180  A    between atoms: _488  and  _489
REMARK  181  A    between atoms: _495  and  _497
REMARK  182  A    between atoms: _497  and  _498
REMARK  183  A    between atoms: _501  and  _503
REMARK  184  A    between atoms: _503  and  _504
REMARK  185  A    between atoms: _503  and  _506
REMARK  186  A    between atoms: _506  and  _507
REMARK  187  A    between atoms: _509  and  _511
REMARK  188  A    between atoms: _511  and  _512
REMARK  189  A    between atoms: _514  and  _516
REMARK  190  A    between atoms: _516  and  _517
REMARK  191  A    between atoms: _516  and  _519
REMARK  192  A    between atoms: _519  and  _520
REMARK  193  A    between atoms: _520  and  _521
REMARK  194  A    between atoms: _527  and  _528
REMARK  195  A    between atoms: _533  and  _535
REMARK  196  A    between atoms: _535  and  _536
REMARK  197  A    between atoms: _535  and  _538
REMARK  198  A    between atoms: _538  and  _539
REMARK  199  A    between atoms: _544  and  _545
REMARK  200  A    between atoms: _547  and  _549
REMARK  201  A    between atoms: _549  and  _550
REMARK  202  A    between atoms: _549  and  _552
REMARK  203  A    between atoms: _552  and  _553
REMARK  204  A    between atoms: _553  and  _554
REMARK  205  A    between atoms: _554  and  _555
REMARK  206  A    between atoms: _564  and  _566
REMARK  207  A    between atoms: _566  and  _567
REMARK  208  A    between atoms: _566  and  _569
REMARK  209  A    between atoms: _569  and  _570
REMARK  210  A    between atoms: _575  and  _576
REMARK  211  A    between atoms: _578  and  _580
REMARK  212  A    between atoms: _580  and  _581
REMARK  213  A    between atoms: _580  and  _583
REMARK  214  A    between atoms: _583  and  _584
REMARK  215  A    between atoms: _584  and  _585
REMARK  216  A    between atoms: _588  and  _590
REMARK  217  A    between atoms: _590  and  _591
REMARK  218  A    between atoms: _590  and  _593
REMARK  219  A    between atoms: _593  and  _594
REMARK  220  A    between atoms: _594  and  _595
REMARK  221  A    between atoms: _595  and  _596
REMARK                            x       y       z     vdW  Elec       q    Type
REMARK                         _______ _______ _______ _____ _____    ______ ____
ROOT
ATOM      1  CB  ASN A   1     -13.444  14.711  -4.567  0.00  0.00    +0.110 C 
ENDROOT
BRANCH   1   2
ATOM      2  CG  ASN A   1     -13.084  13.527  -3.683  0.00  0.00    +0.221 C 
ATOM      3  OD1 ASN A   1     -13.035  13.640  -2.463  0.00  0.00    -0.275 OA
ATOM      4  ND2 ASN A   1     -12.832  12.382  -4.307  0.00  0.00    -0.329 N 
ATOM      5 HD21 ASN A   1     -12.581  11.535  -3.758  0.00  0.00    +0.145 HD
ATOM      6 HD22 ASN A   1     -12.886  12.332  -5.344  0.00  0.00    +0.145 HD
ENDBRANCH   1   2
BRANCH   1   7
ATOM      7  CA  ASN A   1     -13.870  15.949  -3.764  0.00  0.00    +0.142 C 
BRANCH   7   8
ATOM      8  N   ASN A   1     -14.402  16.975  -4.658  0.00  0.00    -0.239 NA
ATOM      9  H   ASN A   1     -13.739  17.540  -5.226  0.00  0.00    +0.142 HD
ENDBRANCH   7   8
BRANCH   7  10
ATOM     10  C   ASN A   1     -12.698  16.473  -2.939  0.00  0.00    +0.225 C 
ATOM     11  O   ASN A   1     -11.617  16.695  -3.470  0.00  0.00    -0.287 OA
ENDBRANCH   7  10
ENDBRANCH   1   7
TORSDOF 4
REMARK  Name = ../refined-set-2016/4zb8/4zb8_pocket.pdb
REMARK  221 active torsions:
REMARK  status: ('A' for Active; 'I' for Inactive)
REMARK    1  A    between atoms: _1  and  _3
REMARK    2  A    between atoms: _3  and  _4
REMARK    3  A    between atoms: _3  and  _6
REMARK    4  A    between atoms: _6  and  _7
REMARK    5  A    between atoms: _12  and  _13
REMARK    6  A    between atoms: _15  and  _17
REMARK    7  A    between atoms: _17  and  _18
REMARK    8  A    between atoms: _17  and  _20
REMARK    9  A    between atoms: _20  and  _21
REMARK   10  A    between atoms: _24  and  _26
REMARK   11  A    between atoms: _26  and  _27
REMARK   12  A    between atoms: _26  and  _29
REMARK   13  A    between atoms: _29  and  _30
REMARK   14  A    between atoms: _35  and  _37
REMARK   15  A    between atoms: _37  and  _38
REMARK   16  A    between atoms: _40  and  _42
REMARK   17  A    between atoms: _42  and  _43
REMARK   18  A    between atoms: _46  and  _47
REMARK   19  A    between atoms: _52  and  _54
REMARK   20  A    between atoms: _54  and  _55
REMARK   21  A    between atoms: _54  and  _57
REMARK   22  A    between atoms: _57  and  _58
REMARK   23  A    between atoms: _63  and  _65
REMARK   24  A    between atoms: _65  and  _66
REMARK   25  A    between atoms: _68  and  _70
REMARK   26  A    between atoms: _70  and  _71
REMARK   27  A    between atoms: _70  and  _73
REMARK   28  A    between atoms: _73  and  _74
REMARK   29  A    between atoms: _84  and  _86
REMARK   30  A    between atoms: _86  and  _87
REMARK   31  A    between atoms: _86  and  _89
REMARK   32  A    between atoms: _89  and  _90
REMARK   33  A    between atoms: _90  and  _91
REMARK   34  A    between atoms: _91  and  _92
REMARK   35  A    between atoms: _92  and  _93
REMARK   36  A    between atoms: _97  and  _99
REMARK   37  A    between atoms: _99  and  _100
REMARK   38  A    between atoms: _99  and  _102
REMARK   39  A    between atoms: _105  and  _107
REMARK   40  A    between atoms: _107  and  _108
REMARK   41  A    between atoms: _107  and  _110
REMARK   42  A    between atoms: _110  and  _111
REMARK   43  A    between atoms: _114  and  _116
REMARK   44  A    between atoms: _116  and  _117
REMARK   45  A    between atoms: _116  and  _119
REMARK   46  A    between atoms: _119  and  _120
REMARK   47  A    between atoms: _126  and  _128
REMARK   48  A    between atoms: _128  and  _129
REMARK   49  A    between atoms: _128  and  _131
REMARK   50  A    between atoms: _131  and  _132
REMARK   51  A    between atoms: _137  and  _139
REMARK   52  A    between atoms: _139  and  _140
REMARK   53  A    between atoms: _139  and  _142
REMARK   54  A    between atoms: _142  and  _143
REMARK   55  A    between atoms: _143  and  _144
REMARK   56  A    between atoms: _144  and  _145
REMARK   57  A    between atoms: _145  and  _146
REMARK   58  A    between atoms: _150  and  _152
REMARK   59  A    between atoms: _152  and  _153
REMARK   60  A    between atoms: _152  and  _155
REMARK   61  A    between atoms: _155  and  _156
REMARK   62  A    between atoms: _161  and  _162
REMARK   63  A    between atoms: _164  and  _166
REMARK   64  A    between atoms: _166  and  _167
REMARK   65  A    between atoms: _166  and  _169
REMARK   66  A    between atoms: _169  and  _170
REMARK   67  A    between atoms: _175  and  _177
REMARK   68  A    between atoms: _177  and  _178
REMARK   69  A    between atoms: _177  and  _180
REMARK   70  A    between atoms: _180  and  _181
REMARK   71  A    between atoms: _186  and  _188
REMARK   72  A    between atoms: _188  and  _189
REMARK   73  A    between atoms: _191  and  _193
REMARK   74  A    between atoms: _193  and  _194
REMARK   75  A    between atoms: _193  and  _196
REMARK   76  A    between atoms: _196  and  _197
REMARK   77  A    between atoms: _197  and  _198
REMARK   78  A    between atoms: _198  and  _199
REMARK   79  A    between atoms: _208  and  _210
REMARK   80  A    between atoms: _210  and  _211
REMARK   81  A    between atoms: _210  and  _213
REMARK   82  A    between atoms: _213  and  _214
REMARK   83  A    between atoms: _218  and  _219
REMARK   84  A    between atoms: _224  and  _226
REMARK   85  A    between atoms: _226  and  _227
REMARK   86  A    between atoms: _230  and  _232
REMARK   87  A    between atoms: _232  and  _233
REMARK   88  A    between atoms: _232  and  _235
REMARK   89  A    between atoms: _235  and  _236
REMARK   90  A    between atoms: _246  and  _248
REMARK   91  A    between atoms: _248  and  _249
REMARK   92  A    between atoms: _248  and  _251
REMARK   93  A    between atoms: _251  and  _252
REMARK   94  A    between atoms: _252  and  _253
REMARK   95  A    between atoms: _256  and  _258
REMARK   96  A    between atoms: _258  and  _259
REMARK   97  A    between atoms: _258  and  _261
REMARK   98  A    between atoms: _261  and  _262
REMARK   99  A    between atoms: _264  and  _266
REMARK  100  A    between atoms: _266  and  _267
REMARK  101  A    between atoms: _266  and  _269
REMARK  102  A    between atoms: _269  and  _270
REMARK  103  A    between atoms: _275  and  _277
REMARK  104  A    between atoms: _277  and  _278
REMARK  105  A    between atoms: _281  and  _283
REMARK  106  A    between atoms: _283  and  _284
REMARK  107  A    between atoms: _283  and  _286
REMARK  108  A    between atoms: _286  and  _287
REMARK  109  A    between atoms: _290  and  _292
REMARK  110  A    between atoms: _292  and  _293
REMARK  111  A    between atoms: _292  and  _295
REMARK  112  A    between atoms: _295  and  _296
REMARK  113  A    between atoms: _299  and  _301
REMARK  114  A    between atoms: _301  and  _302
REMARK  115  A    between atoms: _301  and  _304
REMARK  116  A    between atoms: _304  and  _305
REMARK  117  A    between atoms: _305  and  _306
REMARK  118  A    between atoms: _311  and  _313
REMARK  119  A    between atoms: _313  and  _314
REMARK  120  A    between atoms: _317  and  _319
REMARK  121  A    between atoms: _319  and  _320
REMARK  122  A    between atoms: _319  and  _322
REMARK  123  A    between atoms: _322  and  _323
REMARK  124  A    between atoms: _325  and  _327
REMARK  125  A    between atoms: _327  and  _328
REMARK  126  A    between atoms: _330  and  _332
REMARK  127  A    between atoms: _332  and  _333
REMARK  128  A    between atoms: _332  and  _335
REMARK  129  A    between atoms: _335  and  _336
REMARK  130  A    between atoms: _336  and  _337
REMARK  131  A    between atoms: _342  and  _344
REMARK  132  A    between atoms: _344  and  _345
REMARK  133  A    between atoms: _348  and  _349
REMARK  134  A    between atoms: _354  and  _356
REMARK  135  A    between atoms: _356  and  _357
REMARK  136  A    between atoms: _356  and  _359
REMARK  137  A    between atoms: _359  and  _360
REMARK  138  A    between atoms: _365  and  _366
REMARK  139  A    between atoms: _368  and  _370
REMARK  140  A    between atoms: _370  and  _371
REMARK  141  A    between atoms: _370  and  _373
REMARK  142  A    between atoms: _373  and  _374
REMARK  143  A    between atoms: _379  and  _380
REMARK  144  A    between atoms: _382  and  _384
REMARK  145  A    between atoms: _384  and  _385
REMARK  146  A    between atoms: _387  and  _389
REMARK  147  A    between atoms: _389  and  _390
REMARK  148  A    between atoms: _389  and  _392
REMARK  149  A    between atoms: _392  and  _393
REMARK  150  A    between atoms: _393  and  _394
REMARK  151  A    between atoms: _399  and  _401
REMARK  152  A    between atoms: _401  and  _402
REMARK  153  A    between atoms: _405  and  _407
REMARK  154  A    between atoms: _407  and  _408
REMARK  155  A    between atoms: _411  and  _413
REMARK  156  A    between atoms: _413  and  _414
REMARK  157  A    between atoms: _413  and  _416
REMARK  158  A    between atoms: _416  and  _417
REMARK  159  A    between atoms: _427  and  _429
REMARK  160  A    between atoms: _429  and  _430
REMARK  161  A    between atoms: _429  and  _432
REMARK  162  A    between atoms: _432  and  _433
REMARK  163  A    between atoms: _439  and  _441
REMARK  164  A    between atoms: _441  and  _442
REMARK  165  A    between atoms: _441  and  _444
REMARK  166  A    between atoms: _444  and  _445
REMARK  167  A    between atoms: _450  and  _451
REMARK  168  A    between atoms: _453  and  _455
REMARK  169  A    between atoms: _455  and  _456
REMARK  170  A    between atoms: _455  and  _458
REMARK  171  A    between atoms: _458  and  _459
REMARK  172  A    between atoms: _469  and  _471
REMARK  173  A    between atoms: _471  and  _472
REMARK  174  A    between atoms: _471  and  _474
REMARK  175  A    between atoms: _474  and  _475
REMARK  176  A    between atoms: _480  and  _481
REMARK  177  A    between atoms: _483  and  _485
REMARK  178  A    between atoms: _485  and  _486
REMARK  179  A    between atoms: _485  and  _488
REMARK  180  A    between atoms: _488  and  _489
REMARK  181  A    between atoms: _495  and  _497
REMARK  182  A    between atoms: _497  and  _498
REMARK  183  A    between atoms: _501  and  _503
REMARK  184  A    between atoms: _503  and  _504
REMARK  185  A    between atoms: _503  and  _506
REMARK  186  A    between atoms: _506  and  _507
REMARK  187  A    between atoms: _509  and  _511
REMARK  188  A    between atoms: _511  and  _512
REMARK  189  A    between atoms: _514  and  _516
REMARK  190  A    between atoms: _516  and  _517
REMARK  191  A    between atoms: _516  and  _519
REMARK  192  A    between atoms: _519  and  _520
REMARK  193  A    between atoms: _520  and  _521
REMARK  194  A    between atoms: _527  and  _528
REMARK  195  A    between atoms: _533  and  _535
REMARK  196  A    between atoms: _535  and  _536
REMARK  197  A    between atoms: _535  and  _538
REMARK  198  A    between atoms: _538  and  _539
REMARK  199  A    between atoms: _544  and  _545
REMARK  200  A    between atoms: _547  and  _549
REMARK  201  A    between atoms: _549  and  _550
REMARK  202  A    between atoms: _549  and  _552
REMARK  203  A    between atoms: _552  and  _553
REMARK  204  A    between atoms: _553  and  _554
REMARK  205  A    between atoms: _554  and  _555
REMARK  206  A    between atoms: _564  and  _566
REMARK  207  A    between atoms: _566  and  _567
REMARK  208  A    between atoms: _566  and  _569
REMARK  209  A    between atoms: _569  and  _570
REMARK  210  A    between atoms: _575  and  _576
REMARK  211  A    between atoms: _578  and  _580
REMARK  212  A    between atoms: _580  and  _581
REMARK  213  A    between atoms: _580  and  _583
REMARK  214  A    between atoms: _583  and  _584
REMARK  215  A    between atoms: _584  and  _585
REMARK  216  A    between atoms: _588  and  _590
REMARK  217  A    between atoms: _590  and  _591
REMARK  218  A    between atoms: _590  and  _593
REMARK  219  A    between atoms: _593  and  _594
REMARK  220  A    between atoms: _594  and  _595
REMARK  221  A    between atoms: _595  and  _596
REMARK                            x       y       z     vdW  Elec       q    Type
REMARK                         _______ _______ _______ _____ _____    ______ ____
ROOT
ATOM      1  CA  ARG A   3      -8.682  12.199  -6.351  0.00  0.00    +0.149 C 
ENDROOT
BRANCH   1   3
ATOM      2  C   GLY A   2      -8.009  14.234  -5.186  0.00  0.00    +0.243 C 
ATOM      3  N   ARG A   3      -8.886  13.251  -5.368  0.00  0.00    -0.297 N 
ATOM      4  H   ARG A   3      -9.748  13.234  -4.787  0.00  0.00    +0.150 HD
ATOM      5  O   GLY A   2      -6.851  14.182  -5.584  0.00  0.00    -0.273 OA
BRANCH   2   6
ATOM      6  CA  GLY A   2      -8.518  15.453  -4.443  0.00  0.00    +0.176 C 
BRANCH   6   9
ATOM      7  C   ASN A   1      -8.856  14.233  -2.369  0.00  0.00    +0.239 C 
ATOM      8  O   ASN A   1      -7.754  13.707  -2.427  0.00  0.00    -0.274 OA
ATOM      9  N   GLY A   2      -9.287  15.115  -3.262  0.00  0.00    -0.296 N 
ATOM     10  H   GLY A   2     -10.206  15.578  -3.110  0.00  0.00    +0.150 HD
BRANCH   7  11
ATOM     11  CA  ASN A   1      -9.824  13.894  -1.234  0.00  0.00    +0.154 C 
BRANCH  11  12
ATOM     12  N   ASN A   1     -10.919  14.855  -1.098  0.00  0.00    -0.238 NA
ATOM     13  H   ASN A   1     -11.883  14.573  -1.369  0.00  0.00    +0.142 HD
ENDBRANCH  11  12
BRANCH  11  14
ATOM     14  CB  ASN A   1     -10.350  12.465  -1.406  0.00  0.00    +0.111 C 
BRANCH  14  15
ATOM     15  CG  ASN A   1      -9.283  11.420  -1.139  0.00  0.00    +0.221 C 
ATOM     16  OD1 ASN A   1      -8.420  11.613  -0.297  0.00  0.00    -0.275 OA
ATOM     17  ND2 ASN A   1      -9.339  10.312  -1.861  0.00  0.00    -0.329 N 
ATOM     18 HD21 ASN A   1      -8.630   9.564  -1.721  0.00  0.00    +0.145 HD
ATOM     19 HD22 ASN A   1     -10.092  10.189  -2.568  0.00  0.00    +0.145 HD
ENDBRANCH  14  15
ENDBRANCH  11  14
ENDBRANCH   7  11
ENDBRANCH   6   9
ENDBRANCH   2   6
ENDBRANCH   1   3
BRANCH   1  20
ATOM     20  C   ARG A   3      -9.930  12.020  -7.212  0.00  0.00    +0.241 C 
ATOM     21  O   ARG A   3     -11.010  12.478  -6.855  0.00  0.00    -0.273 OA
ATOM     22  N   ILE A   4      -9.767  11.346  -8.341  0.00  0.00    -0.297 N 
ATOM     23  H   ILE A   4      -8.804  11.089  -8.638  0.00  0.00    +0.150 HD
BRANCH  22  24
ATOM     24  CA  ILE A   4     -10.889  10.954  -9.178  0.00  0.00    +0.149 C 
BRANCH  24  25
ATOM     25  C   ILE A   4     -11.179   9.461  -9.022  0.00  0.00    +0.244 C 
ATOM     26  O   ILE A   4     -10.282   8.690  -8.723  0.00  0.00    -0.273 OA
ATOM     27  N   PRO A   5     -12.432   9.064  -9.224  0.00  0.00    -0.272 N 
ATOM     28  CD  PRO A   5     -12.815   7.643  -9.290  0.00  0.00    +0.094 C 
ATOM     29  CG  PRO A   5     -14.169   7.676  -9.955  0.00  0.00    +0.024 C 
ATOM     30  CB  PRO A   5     -14.173   8.920 -10.769  0.00  0.00    +0.031 C 
ATOM     31  CA  PRO A   5     -13.407   9.914  -9.906  0.00  0.00    +0.152 C 
BRANCH  31  32
ATOM     32  C   PRO A   5     -14.368  10.580  -8.928  0.00  0.00    +0.241 C 
ATOM     33  O   PRO A   5     -14.399  10.249  -7.753  0.00  0.00    -0.273 OA
ATOM     34  N   ALA A   6     -15.152  11.518  -9.439  0.00  0.00    -0.298 N 
ATOM     35  H   ALA A   6     -14.908  11.931 -10.362  0.00  0.00    +0.150 HD
BRANCH  34  36
ATOM     36  CA  ALA A   6     -16.342  11.987  -8.750  0.00  0.00    +0.137 C 
ATOM     37  CB  ALA A   6     -16.028  13.241  -7.959  0.00  0.00    +0.030 C 
BRANCH  36  38
ATOM     38  C   ALA A   6     -17.462  12.257  -9.744  0.00  0.00    +0.227 C 
ATOM     39  O   ALA A   6     -17.223  12.398 -10.939  0.00  0.00    -0.286 OA
ENDBRANCH  36  38
ENDBRANCH  34  36
ENDBRANCH  31  32
ENDBRANCH  24  25
BRANCH  24  40
ATOM     40  CB  ILE A   4     -10.606  11.274 -10.657  0.00  0.00    +0.027 C 
ATOM     41  CG2 ILE A   4     -10.320  12.756 -10.837  0.00  0.00    +0.002 C 
BRANCH  40  42
ATOM     42  CG1 ILE A   4      -9.438  10.431 -11.168  0.00  0.00    +0.002 C 
ATOM     43  CD1 ILE A   4      -9.864   9.236 -11.981  0.00  0.00    +0.000 C 
ENDBRANCH  40  42
ENDBRANCH  24  40
ENDBRANCH  22  24
ENDBRANCH   1  20
BRANCH   1  44
ATOM     44  CB  ARG A   3      -8.316  10.876  -5.664  0.00  0.00    +0.033 C 
BRANCH  44  45
ATOM     45  CG  ARG A   3      -7.246  10.997  -4.593  0.00  0.00    +0.045 C 
BRANCH  45  46
ATOM     46  CD  ARG A   3      -6.896   9.654  -3.970  0.00  0.00    +0.174 C 
BRANCH  46  47
ATOM     47  NE  ARG A   3      -5.756   9.027  -4.627  0.00  0.00    -0.265 N 
ATOM     48  CZ  ARG A   3      -5.333   7.790  -4.387  0.00  0.00    +0.342 C 
ATOM     49  NH2 ARG A   3      -5.959   7.030  -3.508  0.00  0.00    -0.292 N 
ATOM     50 HH21 ARG A   3      -6.788   7.398  -2.999  0.00  0.00    +0.255 HD
ATOM     51 HH22 ARG A   3      -5.623   6.063  -3.324  0.00  0.00    +0.255 HD
ATOM     52  NH1 ARG A   3      -4.289   7.308  -5.036  0.00  0.00    -0.292 N 
ATOM     53 HH11 ARG A   3      -3.960   6.340  -4.846  0.00  0.00    +0.255 HD
ATOM     54 HH12 ARG A   3      -3.795   7.897  -5.737  0.00  0.00    +0.255 HD
ATOM     55  HE  ARG A   3      -5.237   9.587  -5.333  0.00  0.00    +0.259 HD
ENDBRANCH  46  47
ENDBRANCH  45  46
ENDBRANCH  44  45
ENDBRANCH   1  44
TORSDOF 19
REMARK  Name = ../refined-set-2016/4zb8/4zb8_pocket.pdb
REMARK  221 active torsions:
REMARK  status: ('A' for Active; 'I' for Inactive)
REMARK    1  A    between atoms: _1  and  _3
REMARK    2  A    between atoms: _3  and  _4
REMARK    3  A    between atoms: _3  and  _6
REMARK    4  A    between atoms: _6  and  _7
REMARK    5  A    between atoms: _12  and  _13
REMARK    6  A    between atoms: _15  and  _17
REMARK    7  A    between atoms: _17  and  _18
REMARK    8  A    between atoms: _17  and  _20
REMARK    9  A    between atoms: _20  and  _21
REMARK   10  A    between atoms: _24  and  _26
REMARK   11  A    between atoms: _26  and  _27
REMARK   12  A    between atoms: _26  and  _29
REMARK   13  A    between atoms: _29  and  _30
REMARK   14  A    between atoms: _35  and  _37
REMARK   15  A    between atoms: _37  and  _38
REMARK   16  A    between atoms: _40  and  _42
REMARK   17  A    between atoms: _42  and  _43
REMARK   18  A    between atoms: _46  and  _47
REMARK   19  A    between atoms: _52  and  _54
REMARK   20  A    between atoms: _54  and  _55
REMARK   21  A    between atoms: _54  and  _57
REMARK   22  A    between atoms: _57  and  _58
REMARK   23  A    between atoms: _63  and  _65
REMARK   24  A    between atoms: _65  and  _66
REMARK   25  A    between atoms: _68  and  _70
REMARK   26  A    between atoms: _70  and  _71
REMARK   27  A    between atoms: _70  and  _73
REMARK   28  A    between atoms: _73  and  _74
REMARK   29  A    between atoms: _84  and  _86
REMARK   30  A    between atoms: _86  and  _87
REMARK   31  A    between atoms: _86  and  _89
REMARK   32  A    between atoms: _89  and  _90
REMARK   33  A    between atoms: _90  and  _91
REMARK   34  A    between atoms: _91  and  _92
REMARK   35  A    between atoms: _92  and  _93
REMARK   36  A    between atoms: _97  and  _99
REMARK   37  A    between atoms: _99  and  _100
REMARK   38  A    between atoms: _99  and  _102
REMARK   39  A    between atoms: _105  and  _107
REMARK   40  A    between atoms: _107  and  _108
REMARK   41  A    between atoms: _107  and  _110
REMARK   42  A    between atoms: _110  and  _111
REMARK   43  A    between atoms: _114  and  _116
REMARK   44  A    between atoms: _116  and  _117
REMARK   45  A    between atoms: _116  and  _119
REMARK   46  A    between atoms: _119  and  _120
REMARK   47  A    between atoms: _126  and  _128
REMARK   48  A    between atoms: _128  and  _129
REMARK   49  A    between atoms: _128  and  _131
REMARK   50  A    between atoms: _131  and  _132
REMARK   51  A    between atoms: _137  and  _139
REMARK   52  A    between atoms: _139  and  _140
REMARK   53  A    between atoms: _139  and  _142
REMARK   54  A    between atoms: _142  and  _143
REMARK   55  A    between atoms: _143  and  _144
REMARK   56  A    between atoms: _144  and  _145
REMARK   57  A    between atoms: _145  and  _146
REMARK   58  A    between atoms: _150  and  _152
REMARK   59  A    between atoms: _152  and  _153
REMARK   60  A    between atoms: _152  and  _155
REMARK   61  A    between atoms: _155  and  _156
REMARK   62  A    between atoms: _161  and  _162
REMARK   63  A    between atoms: _164  and  _166
REMARK   64  A    between atoms: _166  and  _167
REMARK   65  A    between atoms: _166  and  _169
REMARK   66  A    between atoms: _169  and  _170
REMARK   67  A    between atoms: _175  and  _177
REMARK   68  A    between atoms: _177  and  _178
REMARK   69  A    between atoms: _177  and  _180
REMARK   70  A    between atoms: _180  and  _181
REMARK   71  A    between atoms: _186  and  _188
REMARK   72  A    between atoms: _188  and  _189
REMARK   73  A    between atoms: _191  and  _193
REMARK   74  A    between atoms: _193  and  _194
REMARK   75  A    between atoms: _193  and  _196
REMARK   76  A    between atoms: _196  and  _197
REMARK   77  A    between atoms: _197  and  _198
REMARK   78  A    between atoms: _198  and  _199
REMARK   79  A    between atoms: _208  and  _210
REMARK   80  A    between atoms: _210  and  _211
REMARK   81  A    between atoms: _210  and  _213
REMARK   82  A    between atoms: _213  and  _214
REMARK   83  A    between atoms: _218  and  _219
REMARK   84  A    between atoms: _224  and  _226
REMARK   85  A    between atoms: _226  and  _227
REMARK   86  A    between atoms: _230  and  _232
REMARK   87  A    between atoms: _232  and  _233
REMARK   88  A    between atoms: _232  and  _235
REMARK   89  A    between atoms: _235  and  _236
REMARK   90  A    between atoms: _246  and  _248
REMARK   91  A    between atoms: _248  and  _249
REMARK   92  A    between atoms: _248  and  _251
REMARK   93  A    between atoms: _251  and  _252
REMARK   94  A    between atoms: _252  and  _253
REMARK   95  A    between atoms: _256  and  _258
REMARK   96  A    between atoms: _258  and  _259
REMARK   97  A    between atoms: _258  and  _261
REMARK   98  A    between atoms: _261  and  _262
REMARK   99  A    between atoms: _264  and  _266
REMARK  100  A    between atoms: _266  and  _267
REMARK  101  A    between atoms: _266  and  _269
REMARK  102  A    between atoms: _269  and  _270
REMARK  103  A    between atoms: _275  and  _277
REMARK  104  A    between atoms: _277  and  _278
REMARK  105  A    between atoms: _281  and  _283
REMARK  106  A    between atoms: _283  and  _284
REMARK  107  A    between atoms: _283  and  _286
REMARK  108  A    between atoms: _286  and  _287
REMARK  109  A    between atoms: _290  and  _292
REMARK  110  A    between atoms: _292  and  _293
REMARK  111  A    between atoms: _292  and  _295
REMARK  112  A    between atoms: _295  and  _296
REMARK  113  A    between atoms: _299  and  _301
REMARK  114  A    between atoms: _301  and  _302
REMARK  115  A    between atoms: _301  and  _304
REMARK  116  A    between atoms: _304  and  _305
REMARK  117  A    between atoms: _305  and  _306
REMARK  118  A    between atoms: _311  and  _313
REMARK  119  A    between atoms: _313  and  _314
REMARK  120  A    between atoms: _317  and  _319
REMARK  121  A    between atoms: _319  and  _320
REMARK  122  A    between atoms: _319  and  _322
REMARK  123  A    between atoms: _322  and  _323
REMARK  124  A    between atoms: _325  and  _327
REMARK  125  A    between atoms: _327  and  _328
REMARK  126  A    between atoms: _330  and  _332
REMARK  127  A    between atoms: _332  and  _333
REMARK  128  A    between atoms: _332  and  _335
REMARK  129  A    between atoms: _335  and  _336
REMARK  130  A    between atoms: _336  and  _337
REMARK  131  A    between atoms: _342  and  _344
REMARK  132  A    between atoms: _344  and  _345
REMARK  133  A    between atoms: _348  and  _349
REMARK  134  A    between atoms: _354  and  _356
REMARK  135  A    between atoms: _356  and  _357
REMARK  136  A    between atoms: _356  and  _359
REMARK  137  A    between atoms: _359  and  _360
REMARK  138  A    between atoms: _365  and  _366
REMARK  139  A    between atoms: _368  and  _370
REMARK  140  A    between atoms: _370  and  _371
REMARK  141  A    between atoms: _370  and  _373
REMARK  142  A    between atoms: _373  and  _374
REMARK  143  A    between atoms: _379  and  _380
REMARK  144  A    between atoms: _382  and  _384
REMARK  145  A    between atoms: _384  and  _385
REMARK  146  A    between atoms: _387  and  _389
REMARK  147  A    between atoms: _389  and  _390
REMARK  148  A    between atoms: _389  and  _392
REMARK  149  A    between atoms: _392  and  _393
REMARK  150  A    between atoms: _393  and  _394
REMARK  151  A    between atoms: _399  and  _401
REMARK  152  A    between atoms: _401  and  _402
REMARK  153  A    between atoms: _405  and  _407
REMARK  154  A    between atoms: _407  and  _408
REMARK  155  A    between atoms: _411  and  _413
REMARK  156  A    between atoms: _413  and  _414
REMARK  157  A    between atoms: _413  and  _416
REMARK  158  A    between atoms: _416  and  _417
REMARK  159  A    between atoms: _427  and  _429
REMARK  160  A    between atoms: _429  and  _430
REMARK  161  A    between atoms: _429  and  _432
REMARK  162  A    between atoms: _432  and  _433
REMARK  163  A    between atoms: _439  and  _441
REMARK  164  A    between atoms: _441  and  _442
REMARK  165  A    between atoms: _441  and  _444
REMARK  166  A    between atoms: _444  and  _445
REMARK  167  A    between atoms: _450  and  _451
REMARK  168  A    between atoms: _453  and  _455
REMARK  169  A    between atoms: _455  and  _456
REMARK  170  A    between atoms: _455  and  _458
REMARK  171  A    between atoms: _458  and  _459
REMARK  172  A    between atoms: _469  and  _471
REMARK  173  A    between atoms: _471  and  _472
REMARK  174  A    between atoms: _471  and  _474
REMARK  175  A    between atoms: _474  and  _475
REMARK  176  A    between atoms: _480  and  _481
REMARK  177  A    between atoms: _483  and  _485
REMARK  178  A    between atoms: _485  and  _486
REMARK  179  A    between atoms: _485  and  _488
REMARK  180  A    between atoms: _488  and  _489
REMARK  181  A    between atoms: _495  and  _497
REMARK  182  A    between atoms: _497  and  _498
REMARK  183  A    between atoms: _501  and  _503
REMARK  184  A    between atoms: _503  and  _504
REMARK  185  A    between atoms: _503  and  _506
REMARK  186  A    between atoms: _506  and  _507
REMARK  187  A    between atoms: _509  and  _511
REMARK  188  A    between atoms: _511  and  _512
REMARK  189  A    between atoms: _514  and  _516
REMARK  190  A    between atoms: _516  and  _517
REMARK  191  A    between atoms: _516  and  _519
REMARK  192  A    between atoms: _519  and  _520
REMARK  193  A    between atoms: _520  and  _521
REMARK  194  A    between atoms: _527  and  _528
REMARK  195  A    between atoms: _533  and  _535
REMARK  196  A    between atoms: _535  and  _536
REMARK  197  A    between atoms: _535  and  _538
REMARK  198  A    between atoms: _538  and  _539
REMARK  199  A    between atoms: _544  and  _545
REMARK  200  A    between atoms: _547  and  _549
REMARK  201  A    between atoms: _549  and  _550
REMARK  202  A    between atoms: _549  and  _552
REMARK  203  A    between atoms: _552  and  _553
REMARK  204  A    between atoms: _553  and  _554
REMARK  205  A    between atoms: _554  and  _555
REMARK  206  A    between atoms: _564  and  _566
REMARK  207  A    between atoms: _566  and  _567
REMARK  208  A    between atoms: _566  and  _569
REMARK  209  A    between atoms: _569  and  _570
REMARK  210  A    between atoms: _575  and  _576
REMARK  211  A    between atoms: _578  and  _580
REMARK  212  A    between atoms: _580  and  _581
REMARK  213  A    between atoms: _580  and  _583
REMARK  214  A    between atoms: _583  and  _584
REMARK  215  A    between atoms: _584  and  _585
REMARK  216  A    between atoms: _588  and  _590
REMARK  217  A    between atoms: _590  and  _591
REMARK  218  A    between atoms: _590  and  _593
REMARK  219  A    between atoms: _593  and  _594
REMARK  220  A    between atoms: _594  and  _595
REMARK  221  A    between atoms: _595  and  _596
REMARK                            x       y       z     vdW  Elec       q    Type
REMARK                         _______ _______ _______ _____ _____    ______ ____
ROOT
ATOM      1  C   SER A   3     -16.846   3.921  -7.205  0.00  0.00    +0.243 C 
ATOM      2  N   ASN A   4     -16.730   3.143  -6.137  0.00  0.00    -0.297 N 
ATOM      3  H   ASN A   4     -15.917   3.262  -5.500  0.00  0.00    +0.150 HD
ATOM      4  O   SER A   3     -17.827   3.905  -7.931  0.00  0.00    -0.273 OA
ENDROOT
BRANCH   2   5
ATOM      5  CA  ASN A   4     -17.735   2.118  -5.846  0.00  0.00    +0.158 C 
BRANCH   5   6
ATOM      6  C   ASN A   4     -18.973   2.664  -5.114  0.00  0.00    +0.241 C 
ATOM      7  N   ALA A   5     -18.816   3.817  -4.470  0.00  0.00    -0.297 N 
ATOM      8  H   ALA A   5     -17.852   4.177  -4.319  0.00  0.00    +0.150 HD
ATOM      9  O   ASN A   4     -20.039   2.054  -5.143  0.00  0.00    -0.273 OA
BRANCH   7  10
ATOM     10  CA  ALA A   5     -19.941   4.595  -3.968  0.00  0.00    +0.149 C 
ATOM     11  CB  ALA A   5     -19.449   5.710  -3.062  0.00  0.00    +0.031 C 
BRANCH  10  12
ATOM     12  C   ALA A   5     -20.775   5.173  -5.108  0.00  0.00    +0.241 C 
ATOM     13  O   ALA A   5     -21.990   5.043  -5.121  0.00  0.00    -0.273 OA
ATOM     14  N   ILE A   6     -20.102   5.827  -6.049  0.00  0.00    -0.297 N 
ATOM     15  H   ILE A   6     -19.094   6.031  -5.893  0.00  0.00    +0.150 HD
BRANCH  14  16
ATOM     16  CA  ILE A   6     -20.723   6.268  -7.289  0.00  0.00    +0.149 C 
BRANCH  16  17
ATOM     17  C   ILE A   6     -21.483   5.114  -7.925  0.00  0.00    +0.241 C 
ATOM     18  N   ILE A   7     -20.800   3.988  -8.085  0.00  0.00    -0.298 N 
ATOM     19  H   ILE A   7     -19.836   3.921  -7.701  0.00  0.00    +0.150 HD
ATOM     20  O   ILE A   6     -22.654   5.233  -8.240  0.00  0.00    -0.273 OA
BRANCH  18  21
ATOM     21  CA  ILE A   7     -21.367   2.842  -8.786  0.00  0.00    +0.137 C 
BRANCH  21  22
ATOM     22  CB  ILE A   7     -20.329   1.716  -8.957  0.00  0.00    +0.026 C 
ATOM     23  CG2 ILE A   7     -21.008   0.407  -9.324  0.00  0.00    +0.002 C 
BRANCH  22  24
ATOM     24  CG1 ILE A   7     -19.292   2.113 -10.017  0.00  0.00    +0.002 C 
ATOM     25  CD1 ILE A   7     -18.168   1.124 -10.189  0.00  0.00    +0.000 C 
ENDBRANCH  22  24
ENDBRANCH  21  22
BRANCH  21  26
ATOM     26  C   ILE A   7     -22.622   2.331  -8.077  0.00  0.00    +0.227 C 
ATOM     27  O   ILE A   7     -23.593   1.949  -8.721  0.00  0.00    -0.286 OA
ENDBRANCH  21  26
ENDBRANCH  18  21
ENDBRANCH  16  17
BRANCH  16  28
ATOM     28  CB  ILE A   6     -19.678   6.804  -8.287  0.00  0.00    +0.027 C 
ATOM     29  CG2 ILE A   6     -20.324   7.101  -9.632  0.00  0.00    +0.002 C 
BRANCH  28  30
ATOM     30  CG1 ILE A   6     -18.992   8.056  -7.731  0.00  0.00    +0.002 C 
ATOM     31  CD1 ILE A   6     -17.701   8.411  -8.431  0.00  0.00    +0.000 C 
ENDBRANCH  28  30
ENDBRANCH  16  28
ENDBRANCH  14  16
ENDBRANCH  10  12
ENDBRANCH   7  10
ENDBRANCH   5   6
BRANCH   5  32
ATOM     32  CB  ASN A   4     -17.114   0.933  -5.091  0.00  0.00    +0.114 C 
BRANCH  32  33
ATOM     33  CG  ASN A   4     -16.152   0.127  -5.957  0.00  0.00    +0.222 C 
ATOM     34  ND2 ASN A   4     -15.770  -1.049  -5.483  0.00  0.00    -0.329 N 
ATOM     35 HD21 ASN A   4     -16.131  -1.382  -4.566  0.00  0.00    +0.145 HD
ATOM     36 HD22 ASN A   4     -15.109  -1.639  -6.027  0.00  0.00    +0.145 HD
ATOM     37  OD1 ASN A   4     -15.755   0.565  -7.033  0.00  0.00    -0.275 OA
ENDBRANCH  32  33
ENDBRANCH   5  32
ENDBRANCH   2   5
BRANCH   1  38
ATOM     38  CA  SER A   3     -15.687   4.873  -7.498  0.00  0.00    +0.178 C 
BRANCH  38  41
ATOM     39  C   GLU A   2     -15.919   6.268  -5.538  0.00  0.00    +0.241 C 
ATOM     40  O   GLU A   2     -17.140   6.307  -5.647  0.00  0.00    -0.273 OA
ATOM     41  N   SER A   3     -15.149   5.512  -6.308  0.00  0.00    -0.295 N 
ATOM     42  H   SER A   3     -14.149   5.374  -6.058  0.00  0.00    +0.150 HD
BRANCH  39  43
ATOM     43  CA  GLU A   2     -15.226   7.109  -4.481  0.00  0.00    +0.149 C 
BRANCH  43  46
ATOM     44  C   TRP A   1     -16.694   9.062  -4.259  0.00  0.00    +0.239 C 
ATOM     45  O   TRP A   1     -17.377   8.553  -3.350  0.00  0.00    -0.274 OA
ATOM     46  N   GLU A   2     -15.596   8.493  -4.745  0.00  0.00    -0.297 N 
ATOM     47  H   GLU A   2     -14.968   9.065  -5.345  0.00  0.00    +0.150 HD
BRANCH  44  48
ATOM     48  CA  TRP A   1     -17.098  10.367  -4.913  0.00  0.00    +0.149 C 
BRANCH  48  49
ATOM     49  N   TRP A   1     -18.421  10.824  -4.532  0.00  0.00    -0.238 NA
ATOM     50  H   TRP A   1     -18.676  10.833  -3.524  0.00  0.00    +0.142 HD
ENDBRANCH  48  49
BRANCH  48  51
ATOM     51  CB  TRP A   1     -16.050  11.466  -4.733  0.00  0.00    +0.054 C 
BRANCH  51  52
ATOM     52  CG  TRP A   1     -16.033  12.076  -3.356  0.00  0.00    -0.002 A 
ATOM     53  CD2 TRP A   1     -15.240  11.637  -2.208  0.00  0.00    +0.013 A 
ATOM     54  CE2 TRP A   1     -15.579  12.541  -1.104  0.00  0.00    +0.056 A 
ATOM     55  CZ2 TRP A   1     -15.002  12.414   0.144  0.00  0.00    +0.017 A 
ATOM     56  CH2 TRP A   1     -14.082  11.380   0.315  0.00  0.00    +0.001 A 
ATOM     57  CZ3 TRP A   1     -13.747  10.507  -0.725  0.00  0.00    +0.000 A 
ATOM     58  NE1 TRP A   1     -16.481  13.424  -1.576  0.00  0.00    -0.352 N 
ATOM     59  HE1 TRP A   1     -16.903  14.194  -1.019  0.00  0.00    +0.166 HD
ATOM     60  CE3 TRP A   1     -14.317  10.627  -1.992  0.00  0.00    +0.001 A 
ATOM     61  CD1 TRP A   1     -16.766  13.167  -2.892  0.00  0.00    +0.068 A 
ENDBRANCH  51  52
ENDBRANCH  48  51
ENDBRANCH  44  48
ENDBRANCH  43  46
BRANCH  43  62
ATOM     62  CB  GLU A   2     -15.624   6.650  -3.077  0.00  0.00    +0.041 C 
BRANCH  62  63
ATOM     63  CG  GLU A   2     -14.616   7.001  -1.992  0.00  0.00    +0.116 C 
BRANCH  63  64
ATOM     64  CD  GLU A   2     -13.217   6.484  -2.287  0.00  0.00    +0.365 C 
ATOM     65  OE2 GLU A   2     -12.259   7.256  -2.119  0.00  0.00    -0.246 OA
ATOM     66  OE1 GLU A   2     -13.078   5.315  -2.685  0.00  0.00    -0.246 OA
ENDBRANCH  63  64
ENDBRANCH  62  63
ENDBRANCH  43  62
ENDBRANCH  39  43
ENDBRANCH  38  41
BRANCH  38  67
ATOM     67  CB  SER A   3     -14.581   4.132  -8.261  0.00  0.00    +0.166 C 
BRANCH  67  68
ATOM     68  OG  SER A   3     -13.843   3.279  -7.411  0.00  0.00    -0.380 OA
ATOM     69  H   SER A   3     -13.422   3.815  -6.693  0.00  0.00    +0.211 HD
ENDBRANCH  67  68
ENDBRANCH  38  67
ENDBRANCH   1  38
TORSDOF 27
REMARK  Name = ../refined-set-2016/4zb8/4zb8_pocket.pdb
REMARK  221 active torsions:
REMARK  status: ('A' for Active; 'I' for Inactive)
REMARK    1  A    between atoms: _1  and  _3
REMARK    2  A    between atoms: _3  and  _4
REMARK    3  A    between atoms: _3  and  _6
REMARK    4  A    between atoms: _6  and  _7
REMARK    5  A    between atoms: _12  and  _13
REMARK    6  A    between atoms: _15  and  _17
REMARK    7  A    between atoms: _17  and  _18
REMARK    8  A    between atoms: _17  and  _20
REMARK    9  A    between atoms: _20  and  _21
REMARK   10  A    between atoms: _24  and  _26
REMARK   11  A    between atoms: _26  and  _27
REMARK   12  A    between atoms: _26  and  _29
REMARK   13  A    between atoms: _29  and  _30
REMARK   14  A    between atoms: _35  and  _37
REMARK   15  A    between atoms: _37  and  _38
REMARK   16  A    between atoms: _40  and  _42
REMARK   17  A    between atoms: _42  and  _43
REMARK   18  A    between atoms: _46  and  _47
REMARK   19  A    between atoms: _52  and  _54
REMARK   20  A    between atoms: _54  and  _55
REMARK   21  A    between atoms: _54  and  _57
REMARK   22  A    between atoms: _57  and  _58
REMARK   23  A    between atoms: _63  and  _65
REMARK   24  A    between atoms: _65  and  _66
REMARK   25  A    between atoms: _68  and  _70
REMARK   26  A    between atoms: _70  and  _71
REMARK   27  A    between atoms: _70  and  _73
REMARK   28  A    between atoms: _73  and  _74
REMARK   29  A    between atoms: _84  and  _86
REMARK   30  A    between atoms: _86  and  _87
REMARK   31  A    between atoms: _86  and  _89
REMARK   32  A    between atoms: _89  and  _90
REMARK   33  A    between atoms: _90  and  _91
REMARK   34  A    between atoms: _91  and  _92
REMARK   35  A    between atoms: _92  and  _93
REMARK   36  A    between atoms: _97  and  _99
REMARK   37  A    between atoms: _99  and  _100
REMARK   38  A    between atoms: _99  and  _102
REMARK   39  A    between atoms: _105  and  _107
REMARK   40  A    between atoms: _107  and  _108
REMARK   41  A    between atoms: _107  and  _110
REMARK   42  A    between atoms: _110  and  _111
REMARK   43  A    between atoms: _114  and  _116
REMARK   44  A    between atoms: _116  and  _117
REMARK   45  A    between atoms: _116  and  _119
REMARK   46  A    between atoms: _119  and  _120
REMARK   47  A    between atoms: _126  and  _128
REMARK   48  A    between atoms: _128  and  _129
REMARK   49  A    between atoms: _128  and  _131
REMARK   50  A    between atoms: _131  and  _132
REMARK   51  A    between atoms: _137  and  _139
REMARK   52  A    between atoms: _139  and  _140
REMARK   53  A    between atoms: _139  and  _142
REMARK   54  A    between atoms: _142  and  _143
REMARK   55  A    between atoms: _143  and  _144
REMARK   56  A    between atoms: _144  and  _145
REMARK   57  A    between atoms: _145  and  _146
REMARK   58  A    between atoms: _150  and  _152
REMARK   59  A    between atoms: _152  and  _153
REMARK   60  A    between atoms: _152  and  _155
REMARK   61  A    between atoms: _155  and  _156
REMARK   62  A    between atoms: _161  and  _162
REMARK   63  A    between atoms: _164  and  _166
REMARK   64  A    between atoms: _166  and  _167
REMARK   65  A    between atoms: _166  and  _169
REMARK   66  A    between atoms: _169  and  _170
REMARK   67  A    between atoms: _175  and  _177
REMARK   68  A    between atoms: _177  and  _178
REMARK   69  A    between atoms: _177  and  _180
REMARK   70  A    between atoms: _180  and  _181
REMARK   71  A    between atoms: _186  and  _188
REMARK   72  A    between atoms: _188  and  _189
REMARK   73  A    between atoms: _191  and  _193
REMARK   74  A    between atoms: _193  and  _194
REMARK   75  A    between atoms: _193  and  _196
REMARK   76  A    between atoms: _196  and  _197
REMARK   77  A    between atoms: _197  and  _198
REMARK   78  A    between atoms: _198  and  _199
REMARK   79  A    between atoms: _208  and  _210
REMARK   80  A    between atoms: _210  and  _211
REMARK   81  A    between atoms: _210  and  _213
REMARK   82  A    between atoms: _213  and  _214
REMARK   83  A    between atoms: _218  and  _219
REMARK   84  A    between atoms: _224  and  _226
REMARK   85  A    between atoms: _226  and  _227
REMARK   86  A    between atoms: _230  and  _232
REMARK   87  A    between atoms: _232  and  _233
REMARK   88  A    between atoms: _232  and  _235
REMARK   89  A    between atoms: _235  and  _236
REMARK   90  A    between atoms: _246  and  _248
REMARK   91  A    between atoms: _248  and  _249
REMARK   92  A    between atoms: _248  and  _251
REMARK   93  A    between atoms: _251  and  _252
REMARK   94  A    between atoms: _252  and  _253
REMARK   95  A    between atoms: _256  and  _258
REMARK   96  A    between atoms: _258  and  _259
REMARK   97  A    between atoms: _258  and  _261
REMARK   98  A    between atoms: _261  and  _262
REMARK   99  A    between atoms: _264  and  _266
REMARK  100  A    between atoms: _266  and  _267
REMARK  101  A    between atoms: _266  and  _269
REMARK  102  A    between atoms: _269  and  _270
REMARK  103  A    between atoms: _275  and  _277
REMARK  104  A    between atoms: _277  and  _278
REMARK  105  A    between atoms: _281  and  _283
REMARK  106  A    between atoms: _283  and  _284
REMARK  107  A    between atoms: _283  and  _286
REMARK  108  A    between atoms: _286  and  _287
REMARK  109  A    between atoms: _290  and  _292
REMARK  110  A    between atoms: _292  and  _293
REMARK  111  A    between atoms: _292  and  _295
REMARK  112  A    between atoms: _295  and  _296
REMARK  113  A    between atoms: _299  and  _301
REMARK  114  A    between atoms: _301  and  _302
REMARK  115  A    between atoms: _301  and  _304
REMARK  116  A    between atoms: _304  and  _305
REMARK  117  A    between atoms: _305  and  _306
REMARK  118  A    between atoms: _311  and  _313
REMARK  119  A    between atoms: _313  and  _314
REMARK  120  A    between atoms: _317  and  _319
REMARK  121  A    between atoms: _319  and  _320
REMARK  122  A    between atoms: _319  and  _322
REMARK  123  A    between atoms: _322  and  _323
REMARK  124  A    between atoms: _325  and  _327
REMARK  125  A    between atoms: _327  and  _328
REMARK  126  A    between atoms: _330  and  _332
REMARK  127  A    between atoms: _332  and  _333
REMARK  128  A    between atoms: _332  and  _335
REMARK  129  A    between atoms: _335  and  _336
REMARK  130  A    between atoms: _336  and  _337
REMARK  131  A    between atoms: _342  and  _344
REMARK  132  A    between atoms: _344  and  _345
REMARK  133  A    between atoms: _348  and  _349
REMARK  134  A    between atoms: _354  and  _356
REMARK  135  A    between atoms: _356  and  _357
REMARK  136  A    between atoms: _356  and  _359
REMARK  137  A    between atoms: _359  and  _360
REMARK  138  A    between atoms: _365  and  _366
REMARK  139  A    between atoms: _368  and  _370
REMARK  140  A    between atoms: _370  and  _371
REMARK  141  A    between atoms: _370  and  _373
REMARK  142  A    between atoms: _373  and  _374
REMARK  143  A    between atoms: _379  and  _380
REMARK  144  A    between atoms: _382  and  _384
REMARK  145  A    between atoms: _384  and  _385
REMARK  146  A    between atoms: _387  and  _389
REMARK  147  A    between atoms: _389  and  _390
REMARK  148  A    between atoms: _389  and  _392
REMARK  149  A    between atoms: _392  and  _393
REMARK  150  A    between atoms: _393  and  _394
REMARK  151  A    between atoms: _399  and  _401
REMARK  152  A    between atoms: _401  and  _402
REMARK  153  A    between atoms: _405  and  _407
REMARK  154  A    between atoms: _407  and  _408
REMARK  155  A    between atoms: _411  and  _413
REMARK  156  A    between atoms: _413  and  _414
REMARK  157  A    between atoms: _413  and  _416
REMARK  158  A    between atoms: _416  and  _417
REMARK  159  A    between atoms: _427  and  _429
REMARK  160  A    between atoms: _429  and  _430
REMARK  161  A    between atoms: _429  and  _432
REMARK  162  A    between atoms: _432  and  _433
REMARK  163  A    between atoms: _439  and  _441
REMARK  164  A    between atoms: _441  and  _442
REMARK  165  A    between atoms: _441  and  _444
REMARK  166  A    between atoms: _444  and  _445
REMARK  167  A    between atoms: _450  and  _451
REMARK  168  A    between atoms: _453  and  _455
REMARK  169  A    between atoms: _455  and  _456
REMARK  170  A    between atoms: _455  and  _458
REMARK  171  A    between atoms: _458  and  _459
REMARK  172  A    between atoms: _469  and  _471
REMARK  173  A    between atoms: _471  and  _472
REMARK  174  A    between atoms: _471  and  _474
REMARK  175  A    between atoms: _474  and  _475
REMARK  176  A    between atoms: _480  and  _481
REMARK  177  A    between atoms: _483  and  _485
REMARK  178  A    between atoms: _485  and  _486
REMARK  179  A    between atoms: _485  and  _488
REMARK  180  A    between atoms: _488  and  _489
REMARK  181  A    between atoms: _495  and  _497
REMARK  182  A    between atoms: _497  and  _498
REMARK  183  A    between atoms: _501  and  _503
REMARK  184  A    between atoms: _503  and  _504
REMARK  185  A    between atoms: _503  and  _506
REMARK  186  A    between atoms: _506  and  _507
REMARK  187  A    between atoms: _509  and  _511
REMARK  188  A    between atoms: _511  and  _512
REMARK  189  A    between atoms: _514  and  _516
REMARK  190  A    between atoms: _516  and  _517
REMARK  191  A    between atoms: _516  and  _519
REMARK  192  A    between atoms: _519  and  _520
REMARK  193  A    between atoms: _520  and  _521
REMARK  194  A    between atoms: _527  and  _528
REMARK  195  A    between atoms: _533  and  _535
REMARK  196  A    between atoms: _535  and  _536
REMARK  197  A    between atoms: _535  and  _538
REMARK  198  A    between atoms: _538  and  _539
REMARK  199  A    between atoms: _544  and  _545
REMARK  200  A    between atoms: _547  and  _549
REMARK  201  A    between atoms: _549  and  _550
REMARK  202  A    between atoms: _549  and  _552
REMARK  203  A    between atoms: _552  and  _553
REMARK  204  A    between atoms: _553  and  _554
REMARK  205  A    between atoms: _554  and  _555
REMARK  206  A    between atoms: _564  and  _566
REMARK  207  A    between atoms: _566  and  _567
REMARK  208  A    between atoms: _566  and  _569
REMARK  209  A    between atoms: _569  and  _570
REMARK  210  A    between atoms: _575  and  _576
REMARK  211  A    between atoms: _578  and  _580
REMARK  212  A    between atoms: _580  and  _581
REMARK  213  A    between atoms: _580  and  _583
REMARK  214  A    between atoms: _583  and  _584
REMARK  215  A    between atoms: _584  and  _585
REMARK  216  A    between atoms: _588  and  _590
REMARK  217  A    between atoms: _590  and  _591
REMARK  218  A    between atoms: _590  and  _593
REMARK  219  A    between atoms: _593  and  _594
REMARK  220  A    between atoms: _594  and  _595
REMARK  221  A    between atoms: _595  and  _596
REMARK                            x       y       z     vdW  Elec       q    Type
REMARK                         _______ _______ _______ _____ _____    ______ ____
ROOT
ATOM      1  C   TYR A   8      -1.958  -3.144  -4.728  0.00  0.00    +0.241 C 
ATOM      2  O   TYR A   8      -0.747  -3.097  -4.904  0.00  0.00    -0.273 OA
ATOM      3  N   TYR A   9      -2.823  -3.273  -5.730  0.00  0.00    -0.297 N 
ATOM      4  H   TYR A   9      -3.828  -3.432  -5.516  0.00  0.00    +0.150 HD
ENDROOT
BRANCH   3   5
ATOM      5  CA  TYR A   9      -2.394  -3.196  -7.125  0.00  0.00    +0.153 C 
BRANCH   5   6
ATOM      6  C   TYR A   9      -1.645  -1.888  -7.363  0.00  0.00    +0.241 C 
ATOM      7  N   GLY A  10      -2.173  -0.810  -6.793  0.00  0.00    -0.295 N 
ATOM      8  H   GLY A  10      -2.995  -0.926  -6.167  0.00  0.00    +0.150 HD
ATOM      9  O   TYR A   9      -0.627  -1.859  -8.044  0.00  0.00    -0.273 OA
BRANCH   7  10
ATOM     10  CA  GLY A  10      -1.644   0.520  -7.013  0.00  0.00    +0.176 C 
BRANCH  10  11
ATOM     11  C   GLY A  10      -0.264   0.691  -6.410  0.00  0.00    +0.243 C 
ATOM     12  N   GLN A  11      -0.038   0.047  -5.264  0.00  0.00    -0.297 N 
ATOM     13  H   GLN A  11      -0.815  -0.477  -4.814  0.00  0.00    +0.150 HD
ATOM     14  O   GLY A  10       0.580   1.392  -6.958  0.00  0.00    -0.273 OA
BRANCH  12  15
ATOM     15  CA  GLN A  11       1.272   0.062  -4.630  0.00  0.00    +0.149 C 
BRANCH  15  16
ATOM     16  C   GLN A  11       2.302  -0.628  -5.527  0.00  0.00    +0.241 C 
ATOM     17  O   GLN A  11       3.392  -0.111  -5.729  0.00  0.00    -0.273 OA
ATOM     18  N   ALA A  12       1.920  -1.772  -6.088  0.00  0.00    -0.297 N 
ATOM     19  H   ALA A  12       1.047  -2.226  -5.752  0.00  0.00    +0.150 HD
BRANCH  18  20
ATOM     20  CA  ALA A  12       2.678  -2.414  -7.156  0.00  0.00    +0.149 C 
ATOM     21  CB  ALA A  12       1.934  -3.630  -7.677  0.00  0.00    +0.031 C 
BRANCH  20  22
ATOM     22  C   ALA A  12       2.986  -1.446  -8.296  0.00  0.00    +0.241 C 
ATOM     23  O   ALA A  12       4.132  -1.289  -8.686  0.00  0.00    -0.273 OA
ATOM     24  N   ALA A  13       1.951  -0.798  -8.816  0.00  0.00    -0.297 N 
ATOM     25  H   ALA A  13       0.993  -1.021  -8.479  0.00  0.00    +0.150 HD
BRANCH  24  26
ATOM     26  CA  ALA A  13       2.123   0.216  -9.845  0.00  0.00    +0.149 C 
ATOM     27  CB  ALA A  13       0.809   0.930 -10.114  0.00  0.00    +0.031 C 
BRANCH  26  28
ATOM     28  C   ALA A  13       3.196   1.213  -9.424  0.00  0.00    +0.241 C 
ATOM     29  N   TRP A  14       3.059   1.732  -8.209  0.00  0.00    -0.297 N 
ATOM     30  H   TRP A  14       2.327   1.350  -7.577  0.00  0.00    +0.150 HD
ATOM     31  O   ALA A  13       4.127   1.484 -10.170  0.00  0.00    -0.273 OA
BRANCH  29  32
ATOM     32  CA  TRP A  14       3.895   2.810  -7.740  0.00  0.00    +0.153 C 
BRANCH  32  33
ATOM     33  C   TRP A  14       5.334   2.404  -7.654  0.00  0.00    +0.241 C 
ATOM     34  N   PHE A  15       5.598   1.294  -6.977  0.00  0.00    -0.298 N 
ATOM     35  H   PHE A  15       4.811   0.698  -6.650  0.00  0.00    +0.150 HD
ATOM     36  O   TRP A  14       6.218   3.099  -8.182  0.00  0.00    -0.273 OA
BRANCH  34  37
ATOM     37  CA  PHE A  15       6.966   0.893  -6.682  0.00  0.00    +0.141 C 
BRANCH  37  38
ATOM     38  C   PHE A  15       7.702   0.429  -7.932  0.00  0.00    +0.227 C 
ATOM     39  O   PHE A  15       8.902   0.617  -8.054  0.00  0.00    -0.286 OA
ENDBRANCH  37  38
BRANCH  37  40
ATOM     40  CB  PHE A  15       6.987  -0.201  -5.621  0.00  0.00    +0.054 C 
BRANCH  40  41
ATOM     41  CG  PHE A  15       6.875   0.319  -4.227  0.00  0.00    -0.020 A 
ATOM     42  CD2 PHE A  15       5.710   0.153  -3.503  0.00  0.00    -0.004 A 
ATOM     43  CE2 PHE A  15       5.605   0.639  -2.216  0.00  0.00    -0.000 A 
ATOM     44  CZ  PHE A  15       6.667   1.304  -1.645  0.00  0.00    -0.000 A 
ATOM     45  CE1 PHE A  15       7.833   1.482  -2.357  0.00  0.00    -0.000 A 
ATOM     46  CD1 PHE A  15       7.934   0.989  -3.642  0.00  0.00    -0.004 A 
ENDBRANCH  40  41
ENDBRANCH  37  40
ENDBRANCH  34  37
ENDBRANCH  32  33
BRANCH  32  47
ATOM     47  CB  TRP A  14       3.430   3.312  -6.382  0.00  0.00    +0.057 C 
BRANCH  47  48
ATOM     48  CG  TRP A  14       4.319   4.413  -5.865  0.00  0.00    -0.002 A 
ATOM     49  CD1 TRP A  14       5.264   4.341  -4.851  0.00  0.00    +0.068 A 
ATOM     50  NE1 TRP A  14       5.892   5.544  -4.682  0.00  0.00    -0.352 N 
ATOM     51  HE1 TRP A  14       6.634   5.729  -3.977  0.00  0.00    +0.166 HD
ATOM     52  CE2 TRP A  14       5.421   6.455  -5.551  0.00  0.00    +0.056 A 
ATOM     53  CZ2 TRP A  14       5.753   7.782  -5.740  0.00  0.00    +0.017 A 
ATOM     54  CH2 TRP A  14       5.070   8.467  -6.743  0.00  0.00    +0.001 A 
ATOM     55  CZ3 TRP A  14       4.090   7.849  -7.523  0.00  0.00    +0.000 A 
ATOM     56  CE3 TRP A  14       3.743   6.509  -7.342  0.00  0.00    +0.001 A 
ATOM     57  CD2 TRP A  14       4.395   5.789  -6.356  0.00  0.00    +0.013 A 
ENDBRANCH  47  48
ENDBRANCH  32  47
ENDBRANCH  29  32
ENDBRANCH  26  28
ENDBRANCH  24  26
ENDBRANCH  20  22
ENDBRANCH  18  20
ENDBRANCH  15  16
BRANCH  15  58
ATOM     58  CB  GLN A  11       1.217  -0.607  -3.256  0.00  0.00    +0.039 C 
BRANCH  58  59
ATOM     59  CG  GLN A  11       0.491   0.203  -2.191  0.00  0.00    +0.087 C 
BRANCH  59  60
ATOM     60  CD  GLN A  11       0.180   1.620  -2.632  0.00  0.00    +0.219 C 
ATOM     61  NE2 GLN A  11       1.084   2.539  -2.345  0.00  0.00    -0.329 N 
ATOM     62 HE21 GLN A  11       1.952   2.274  -1.838  0.00  0.00    +0.145 HD
ATOM     63 HE22 GLN A  11       0.928   3.528  -2.626  0.00  0.00    +0.145 HD
ATOM     64  OE1 GLN A  11      -0.862   1.880  -3.229  0.00  0.00    -0.275 OA
ENDBRANCH  59  60
ENDBRANCH  58  59
ENDBRANCH  15  58
ENDBRANCH  12  15
ENDBRANCH  10  11
ENDBRANCH   7  10
ENDBRANCH   5   6
BRANCH   5  65
ATOM     65  CB  TYR A   9      -3.585  -3.270  -8.077  0.00  0.00    +0.055 C 
BRANCH  65  66
ATOM     66  CG  TYR A   9      -4.136  -4.658  -8.352  0.00  0.00    -0.020 A 
ATOM     67  CD2 TYR A   9      -4.300  -5.587  -7.333  0.00  0.00    -0.001 A 
ATOM     68  CE2 TYR A   9      -4.817  -6.841  -7.587  0.00  0.00    +0.036 A 
ATOM     69  CZ  TYR A   9      -5.200  -7.177  -8.874  0.00  0.00    +0.134 A 
ATOM     70  CE1 TYR A   9      -5.058  -6.275  -9.896  0.00  0.00    +0.036 A 
ATOM     71  CD1 TYR A   9      -4.530  -5.023  -9.637  0.00  0.00    -0.001 A 
BRANCH  69  72
ATOM     72  OH  TYR A   9      -5.720  -8.418  -9.134  0.00  0.00    -0.506 OA
ATOM     73  HH  TYR A   9      -5.938  -8.488 -10.097  0.00  0.00    +0.292 HD
ENDBRANCH  69  72
ENDBRANCH  65  66
ENDBRANCH   5  65
ENDBRANCH   3   5
BRANCH   1  74
ATOM     74  CA  TYR A   8      -2.544  -3.040  -3.310  0.00  0.00    +0.153 C 
BRANCH  74  76
ATOM     75  C   PRO A   7      -3.613  -0.850  -3.380  0.00  0.00    +0.241 C 
ATOM     76  N   TYR A   8      -3.710  -2.166  -3.242  0.00  0.00    -0.297 N 
ATOM     77  H   TYR A   8      -4.647  -2.588  -3.080  0.00  0.00    +0.150 HD
ATOM     78  O   PRO A   7      -2.568  -0.277  -3.661  0.00  0.00    -0.273 OA
BRANCH  75  84
ATOM     79  C   GLY A   6      -5.923  -0.818  -5.278  0.00  0.00    +0.246 C 
ATOM     80  N   PRO A   7      -6.007  -0.643  -3.964  0.00  0.00    -0.272 N 
ATOM     81  CD  PRO A   7      -7.155  -0.963  -3.103  0.00  0.00    +0.094 C 
ATOM     82  CG  PRO A   7      -6.876  -0.172  -1.863  0.00  0.00    +0.024 C 
ATOM     83  CB  PRO A   7      -5.392  -0.119  -1.760  0.00  0.00    +0.031 C 
ATOM     84  CA  PRO A   7      -4.903  -0.047  -3.205  0.00  0.00    +0.152 C 
ATOM     85  O   GLY A   6      -4.897  -0.605  -5.910  0.00  0.00    -0.273 OA
BRANCH  79  86
ATOM     86  CA  GLY A   6      -7.171  -1.319  -5.983  0.00  0.00    +0.176 C 
BRANCH  86  88
ATOM     87  C   GLN A   5      -6.879  -3.692  -5.544  0.00  0.00    +0.241 C 
ATOM     88  N   GLY A   6      -7.657  -2.611  -5.531  0.00  0.00    -0.295 N 
ATOM     89  H   GLY A   6      -8.636  -2.694  -5.189  0.00  0.00    +0.150 HD
ATOM     90  O   GLN A   5      -5.682  -3.636  -5.757  0.00  0.00    -0.273 OA
BRANCH  87  91
ATOM     91  CA  GLN A   5      -7.529  -5.035  -5.199  0.00  0.00    +0.149 C 
BRANCH  91  94
ATOM     92  C   GLY A   4      -7.511  -5.492  -2.822  0.00  0.00    +0.243 C 
ATOM     93  O   GLY A   4      -6.357  -5.901  -2.882  0.00  0.00    -0.273 OA
ATOM     94  N   GLN A   5      -8.179  -5.074  -3.894  0.00  0.00    -0.297 N 
ATOM     95  H   GLN A   5      -9.170  -4.773  -3.801  0.00  0.00    +0.150 HD
BRANCH  92  96
ATOM     96  CA  GLY A   4      -8.247  -5.460  -1.493  0.00  0.00    +0.176 C 
BRANCH  96  99
ATOM     97  C   SER A   3      -8.799  -3.245  -0.650  0.00  0.00    +0.243 C 
ATOM     98  O   SER A   3      -7.710  -3.114  -0.107  0.00  0.00    -0.273 OA
ATOM     99  N   GLY A   4      -9.153  -4.340  -1.314  0.00  0.00    -0.295 N 
ATOM    100  H   GLY A   4     -10.110  -4.397  -1.718  0.00  0.00    +0.150 HD
BRANCH  97 101
ATOM    101  CA  SER A   3      -9.841  -2.125  -0.588  0.00  0.00    +0.178 C 
BRANCH 101 103
ATOM    102  C   ALA A   2     -10.860  -1.131  -2.556  0.00  0.00    +0.241 C 
ATOM    103  N   SER A   3     -10.767  -2.157  -1.720  0.00  0.00    -0.295 N 
ATOM    104  H   SER A   3     -11.361  -2.997  -1.872  0.00  0.00    +0.150 HD
ATOM    105  O   ALA A   2     -10.096  -0.177  -2.512  0.00  0.00    -0.273 OA
BRANCH 102 106
ATOM    106  CA  ALA A   2     -11.993  -1.179  -3.591  0.00  0.00    +0.149 C 
ATOM    107  CB  ALA A   2     -13.164  -0.316  -3.144  0.00  0.00    +0.031 C 
BRANCH 106 109
ATOM    108  C   GLN A   1     -11.711  -3.375  -4.610  0.00  0.00    +0.238 C 
ATOM    109  N   ALA A   2     -12.441  -2.539  -3.878  0.00  0.00    -0.297 N 
ATOM    110  H   ALA A   2     -13.355  -2.862  -3.500  0.00  0.00    +0.150 HD
ATOM    111  O   GLN A   1     -10.552  -3.148  -4.921  0.00  0.00    -0.274 OA
BRANCH 108 112
ATOM    112  CA  GLN A   1     -12.387  -4.672  -5.056  0.00  0.00    +0.145 C 
BRANCH 112 113
ATOM    113  N   GLN A   1     -12.966  -5.408  -3.938  0.00  0.00    -0.238 NA
ATOM    114  H   GLN A   1     -13.984  -5.621  -3.947  0.00  0.00    +0.142 HD
ENDBRANCH 112 113
BRANCH 112 115
ATOM    115  CB  GLN A   1     -13.439  -4.385  -6.135  0.00  0.00    +0.036 C 
BRANCH 115 116
ATOM    116  CG  GLN A   1     -12.862  -3.825  -7.427  0.00  0.00    +0.087 C 
BRANCH 116 117
ATOM    117  CD  GLN A   1     -12.395  -2.390  -7.290  0.00  0.00    +0.219 C 
ATOM    118  OE1 GLN A   1     -13.090  -1.557  -6.722  0.00  0.00    -0.275 OA
ATOM    119  NE2 GLN A   1     -11.217  -2.094  -7.820  0.00  0.00    -0.329 N 
ATOM    120 HE21 GLN A   1     -10.850  -1.123  -7.762  0.00  0.00    +0.145 HD
ATOM    121 HE22 GLN A   1     -10.659  -2.833  -8.294  0.00  0.00    +0.145 HD
ENDBRANCH 116 117
ENDBRANCH 115 116
ENDBRANCH 112 115
ENDBRANCH 108 112
ENDBRANCH 106 109
ENDBRANCH 102 106
ENDBRANCH 101 103
BRANCH 101 122
ATOM    122  CB  SER A   3     -10.597  -2.171   0.747  0.00  0.00    +0.166 C 
BRANCH 122 123
ATOM    123  OG  SER A   3     -11.003  -3.477   1.097  0.00  0.00    -0.380 OA
ATOM    124  H   SER A   3     -11.603  -3.834   0.395  0.00  0.00    +0.211 HD
ENDBRANCH 122 123
ENDBRANCH 101 122
ENDBRANCH  97 101
ENDBRANCH  96  99
ENDBRANCH  92  96
ENDBRANCH  91  94
BRANCH  91 125
ATOM    125  CB  GLN A   5      -8.527  -5.411  -6.302  0.00  0.00    +0.039 C 
BRANCH 125 126
ATOM    126  CG  GLN A   5      -7.896  -5.726  -7.652  0.00  0.00    +0.087 C 
BRANCH 126 127
ATOM    127  CD  GLN A   5      -8.776  -5.327  -8.825  0.00  0.00    +0.219 C 
ATOM    128  OE1 GLN A   5      -9.560  -4.390  -8.736  0.00  0.00    -0.275 OA
ATOM    129  NE2 GLN A   5      -8.644  -6.042  -9.931  0.00  0.00    -0.329 N 
ATOM    130 HE21 GLN A   5      -7.966  -6.830  -9.963  0.00  0.00    +0.145 HD
ATOM    131 HE22 GLN A   5      -9.219  -5.816 -10.768  0.00  0.00    +0.145 HD
ENDBRANCH 126 127
ENDBRANCH 125 126
ENDBRANCH  91 125
ENDBRANCH  87  91
ENDBRANCH  86  88
ENDBRANCH  79  86
ENDBRANCH  75  84
ENDBRANCH  74  76
BRANCH  74 132
ATOM    132  CB  TYR A   8      -2.875  -4.428  -2.759  0.00  0.00    +0.055 C 
BRANCH 132 133
ATOM    133  CG  TYR A   8      -3.150  -4.460  -1.270  0.00  0.00    -0.020 A 
ATOM    134  CD2 TYR A   8      -2.112  -4.530  -0.350  0.00  0.00    -0.001 A 
ATOM    135  CE2 TYR A   8      -2.362  -4.565   1.013  0.00  0.00    +0.036 A 
ATOM    136  CZ  TYR A   8      -3.661  -4.526   1.470  0.00  0.00    +0.134 A 
ATOM    137  CE1 TYR A   8      -4.705  -4.456   0.572  0.00  0.00    +0.036 A 
ATOM    138  CD1 TYR A   8      -4.447  -4.427  -0.785  0.00  0.00    -0.001 A 
BRANCH 136 139
ATOM    139  OH  TYR A   8      -3.922  -4.558   2.820  0.00  0.00    -0.506 OA
ATOM    140  HH  TYR A   8      -3.068  -4.608   3.319  0.00  0.00    +0.292 HD
ENDBRANCH 136 139
ENDBRANCH 132 133
ENDBRANCH  74 132
ENDBRANCH   1  74
TORSDOF 50
REMARK  Name = ../refined-set-2016/4zb8/4zb8_pocket.pdb
REMARK  221 active torsions:
REMARK  status: ('A' for Active; 'I' for Inactive)
REMARK    1  A    between atoms: _1  and  _3
REMARK    2  A    between atoms: _3  and  _4
REMARK    3  A    between atoms: _3  and  _6
REMARK    4  A    between atoms: _6  and  _7
REMARK    5  A    between atoms: _12  and  _13
REMARK    6  A    between atoms: _15  and  _17
REMARK    7  A    between atoms: _17  and  _18
REMARK    8  A    between atoms: _17  and  _20
REMARK    9  A    between atoms: _20  and  _21
REMARK   10  A    between atoms: _24  and  _26
REMARK   11  A    between atoms: _26  and  _27
REMARK   12  A    between atoms: _26  and  _29
REMARK   13  A    between atoms: _29  and  _30
REMARK   14  A    between atoms: _35  and  _37
REMARK   15  A    between atoms: _37  and  _38
REMARK   16  A    between atoms: _40  and  _42
REMARK   17  A    between atoms: _42  and  _43
REMARK   18  A    between atoms: _46  and  _47
REMARK   19  A    between atoms: _52  and  _54
REMARK   20  A    between atoms: _54  and  _55
REMARK   21  A    between atoms: _54  and  _57
REMARK   22  A    between atoms: _57  and  _58
REMARK   23  A    between atoms: _63  and  _65
REMARK   24  A    between atoms: _65  and  _66
REMARK   25  A    between atoms: _68  and  _70
REMARK   26  A    between atoms: _70  and  _71
REMARK   27  A    between atoms: _70  and  _73
REMARK   28  A    between atoms: _73  and  _74
REMARK   29  A    between atoms: _84  and  _86
REMARK   30  A    between atoms: _86  and  _87
REMARK   31  A    between atoms: _86  and  _89
REMARK   32  A    between atoms: _89  and  _90
REMARK   33  A    between atoms: _90  and  _91
REMARK   34  A    between atoms: _91  and  _92
REMARK   35  A    between atoms: _92  and  _93
REMARK   36  A    between atoms: _97  and  _99
REMARK   37  A    between atoms: _99  and  _100
REMARK   38  A    between atoms: _99  and  _102
REMARK   39  A    between atoms: _105  and  _107
REMARK   40  A    between atoms: _107  and  _108
REMARK   41  A    between atoms: _107  and  _110
REMARK   42  A    between atoms: _110  and  _111
REMARK   43  A    between atoms: _114  and  _116
REMARK   44  A    between atoms: _116  and  _117
REMARK   45  A    between atoms: _116  and  _119
REMARK   46  A    between atoms: _119  and  _120
REMARK   47  A    between atoms: _126  and  _128
REMARK   48  A    between atoms: _128  and  _129
REMARK   49  A    between atoms: _128  and  _131
REMARK   50  A    between atoms: _131  and  _132
REMARK   51  A    between atoms: _137  and  _139
REMARK   52  A    between atoms: _139  and  _140
REMARK   53  A    between atoms: _139  and  _142
REMARK   54  A    between atoms: _142  and  _143
REMARK   55  A    between atoms: _143  and  _144
REMARK   56  A    between atoms: _144  and  _145
REMARK   57  A    between atoms: _145  and  _146
REMARK   58  A    between atoms: _150  and  _152
REMARK   59  A    between atoms: _152  and  _153
REMARK   60  A    between atoms: _152  and  _155
REMARK   61  A    between atoms: _155  and  _156
REMARK   62  A    between atoms: _161  and  _162
REMARK   63  A    between atoms: _164  and  _166
REMARK   64  A    between atoms: _166  and  _167
REMARK   65  A    between atoms: _166  and  _169
REMARK   66  A    between atoms: _169  and  _170
REMARK   67  A    between atoms: _175  and  _177
REMARK   68  A    between atoms: _177  and  _178
REMARK   69  A    between atoms: _177  and  _180
REMARK   70  A    between atoms: _180  and  _181
REMARK   71  A    between atoms: _186  and  _188
REMARK   72  A    between atoms: _188  and  _189
REMARK   73  A    between atoms: _191  and  _193
REMARK   74  A    between atoms: _193  and  _194
REMARK   75  A    between atoms: _193  and  _196
REMARK   76  A    between atoms: _196  and  _197
REMARK   77  A    between atoms: _197  and  _198
REMARK   78  A    between atoms: _198  and  _199
REMARK   79  A    between atoms: _208  and  _210
REMARK   80  A    between atoms: _210  and  _211
REMARK   81  A    between atoms: _210  and  _213
REMARK   82  A    between atoms: _213  and  _214
REMARK   83  A    between atoms: _218  and  _219
REMARK   84  A    between atoms: _224  and  _226
REMARK   85  A    between atoms: _226  and  _227
REMARK   86  A    between atoms: _230  and  _232
REMARK   87  A    between atoms: _232  and  _233
REMARK   88  A    between atoms: _232  and  _235
REMARK   89  A    between atoms: _235  and  _236
REMARK   90  A    between atoms: _246  and  _248
REMARK   91  A    between atoms: _248  and  _249
REMARK   92  A    between atoms: _248  and  _251
REMARK   93  A    between atoms: _251  and  _252
REMARK   94  A    between atoms: _252  and  _253
REMARK   95  A    between atoms: _256  and  _258
REMARK   96  A    between atoms: _258  and  _259
REMARK   97  A    between atoms: _258  and  _261
REMARK   98  A    between atoms: _261  and  _262
REMARK   99  A    between atoms: _264  and  _266
REMARK  100  A    between atoms: _266  and  _267
REMARK  101  A    between atoms: _266  and  _269
REMARK  102  A    between atoms: _269  and  _270
REMARK  103  A    between atoms: _275  and  _277
REMARK  104  A    between atoms: _277  and  _278
REMARK  105  A    between atoms: _281  and  _283
REMARK  106  A    between atoms: _283  and  _284
REMARK  107  A    between atoms: _283  and  _286
REMARK  108  A    between atoms: _286  and  _287
REMARK  109  A    between atoms: _290  and  _292
REMARK  110  A    between atoms: _292  and  _293
REMARK  111  A    between atoms: _292  and  _295
REMARK  112  A    between atoms: _295  and  _296
REMARK  113  A    between atoms: _299  and  _301
REMARK  114  A    between atoms: _301  and  _302
REMARK  115  A    between atoms: _301  and  _304
REMARK  116  A    between atoms: _304  and  _305
REMARK  117  A    between atoms: _305  and  _306
REMARK  118  A    between atoms: _311  and  _313
REMARK  119  A    between atoms: _313  and  _314
REMARK  120  A    between atoms: _317  and  _319
REMARK  121  A    between atoms: _319  and  _320
REMARK  122  A    between atoms: _319  and  _322
REMARK  123  A    between atoms: _322  and  _323
REMARK  124  A    between atoms: _325  and  _327
REMARK  125  A    between atoms: _327  and  _328
REMARK  126  A    between atoms: _330  and  _332
REMARK  127  A    between atoms: _332  and  _333
REMARK  128  A    between atoms: _332  and  _335
REMARK  129  A    between atoms: _335  and  _336
REMARK  130  A    between atoms: _336  and  _337
REMARK  131  A    between atoms: _342  and  _344
REMARK  132  A    between atoms: _344  and  _345
REMARK  133  A    between atoms: _348  and  _349
REMARK  134  A    between atoms: _354  and  _356
REMARK  135  A    between atoms: _356  and  _357
REMARK  136  A    between atoms: _356  and  _359
REMARK  137  A    between atoms: _359  and  _360
REMARK  138  A    between atoms: _365  and  _366
REMARK  139  A    between atoms: _368  and  _370
REMARK  140  A    between atoms: _370  and  _371
REMARK  141  A    between atoms: _370  and  _373
REMARK  142  A    between atoms: _373  and  _374
REMARK  143  A    between atoms: _379  and  _380
REMARK  144  A    between atoms: _382  and  _384
REMARK  145  A    between atoms: _384  and  _385
REMARK  146  A    between atoms: _387  and  _389
REMARK  147  A    between atoms: _389  and  _390
REMARK  148  A    between atoms: _389  and  _392
REMARK  149  A    between atoms: _392  and  _393
REMARK  150  A    between atoms: _393  and  _394
REMARK  151  A    between atoms: _399  and  _401
REMARK  152  A    between atoms: _401  and  _402
REMARK  153  A    between atoms: _405  and  _407
REMARK  154  A    between atoms: _407  and  _408
REMARK  155  A    between atoms: _411  and  _413
REMARK  156  A    between atoms: _413  and  _414
REMARK  157  A    between atoms: _413  and  _416
REMARK  158  A    between atoms: _416  and  _417
REMARK  159  A    between atoms: _427  and  _429
REMARK  160  A    between atoms: _429  and  _430
REMARK  161  A    between atoms: _429  and  _432
REMARK  162  A    between atoms: _432  and  _433
REMARK  163  A    between atoms: _439  and  _441
REMARK  164  A    between atoms: _441  and  _442
REMARK  165  A    between atoms: _441  and  _444
REMARK  166  A    between atoms: _444  and  _445
REMARK  167  A    between atoms: _450  and  _451
REMARK  168  A    between atoms: _453  and  _455
REMARK  169  A    between atoms: _455  and  _456
REMARK  170  A    between atoms: _455  and  _458
REMARK  171  A    between atoms: _458  and  _459
REMARK  172  A    between atoms: _469  and  _471
REMARK  173  A    between atoms: _471  and  _472
REMARK  174  A    between atoms: _471  and  _474
REMARK  175  A    between atoms: _474  and  _475
REMARK  176  A    between atoms: _480  and  _481
REMARK  177  A    between atoms: _483  and  _485
REMARK  178  A    between atoms: _485  and  _486
REMARK  179  A    between atoms: _485  and  _488
REMARK  180  A    between atoms: _488  and  _489
REMARK  181  A    between atoms: _495  and  _497
REMARK  182  A    between atoms: _497  and  _498
REMARK  183  A    between atoms: _501  and  _503
REMARK  184  A    between atoms: _503  and  _504
REMARK  185  A    between atoms: _503  and  _506
REMARK  186  A    between atoms: _506  and  _507
REMARK  187  A    between atoms: _509  and  _511
REMARK  188  A    between atoms: _511  and  _512
REMARK  189  A    between atoms: _514  and  _516
REMARK  190  A    between atoms: _516  and  _517
REMARK  191  A    between atoms: _516  and  _519
REMARK  192  A    between atoms: _519  and  _520
REMARK  193  A    between atoms: _520  and  _521
REMARK  194  A    between atoms: _527  and  _528
REMARK  195  A    between atoms: _533  and  _535
REMARK  196  A    between atoms: _535  and  _536
REMARK  197  A    between atoms: _535  and  _538
REMARK  198  A    between atoms: _538  and  _539
REMARK  199  A    between atoms: _544  and  _545
REMARK  200  A    between atoms: _547  and  _549
REMARK  201  A    between atoms: _549  and  _550
REMARK  202  A    between atoms: _549  and  _552
REMARK  203  A    between atoms: _552  and  _553
REMARK  204  A    between atoms: _553  and  _554
REMARK  205  A    between atoms: _554  and  _555
REMARK  206  A    between atoms: _564  and  _566
REMARK  207  A    between atoms: _566  and  _567
REMARK  208  A    between atoms: _566  and  _569
REMARK  209  A    between atoms: _569  and  _570
REMARK  210  A    between atoms: _575  and  _576
REMARK  211  A    between atoms: _578  and  _580
REMARK  212  A    between atoms: _580  and  _581
REMARK  213  A    between atoms: _580  and  _583
REMARK  214  A    between atoms: _583  and  _584
REMARK  215  A    between atoms: _584  and  _585
REMARK  216  A    between atoms: _588  and  _590
REMARK  217  A    between atoms: _590  and  _591
REMARK  218  A    between atoms: _590  and  _593
REMARK  219  A    between atoms: _593  and  _594
REMARK  220  A    between atoms: _594  and  _595
REMARK  221  A    between atoms: _595  and  _596
REMARK                            x       y       z     vdW  Elec       q    Type
REMARK                         _______ _______ _______ _____ _____    ______ ____
ROOT
ATOM      1  CG  TYR A   1       5.124   6.155 -11.582  0.00  0.00    -0.020 A 
ATOM      2  CD2 TYR A   1       4.107   5.260 -11.868  0.00  0.00    -0.001 A 
ATOM      3  CE2 TYR A   1       3.528   5.213 -13.122  0.00  0.00    +0.036 A 
ATOM      4  CZ  TYR A   1       3.971   6.063 -14.110  0.00  0.00    +0.134 A 
ATOM      5  CE1 TYR A   1       4.990   6.957 -13.854  0.00  0.00    +0.036 A 
ATOM      6  CD1 TYR A   1       5.558   6.999 -12.596  0.00  0.00    -0.001 A 
ENDROOT
BRANCH   4   7
ATOM      7  OH  TYR A   1       3.397   6.013 -15.363  0.00  0.00    -0.506 OA
ATOM      8  HH  TYR A   1       3.828   6.684 -15.949  0.00  0.00    +0.292 HD
ENDBRANCH   4   7
BRANCH   1   9
ATOM      9  CB  TYR A   1       5.751   6.202 -10.211  0.00  0.00    +0.051 C 
BRANCH   9  10
ATOM     10  CA  TYR A   1       7.196   5.710 -10.189  0.00  0.00    +0.137 C 
BRANCH  10  11
ATOM     11  N   TYR A   1       7.255   4.287 -10.495  0.00  0.00    -0.239 NA
ATOM     12  H   TYR A   1       6.646   3.629  -9.967  0.00  0.00    +0.142 HD
ENDBRANCH  10  11
BRANCH  10  13
ATOM     13  C   TYR A   1       7.863   6.097  -8.868  0.00  0.00    +0.224 C 
ATOM     14  O   TYR A   1       8.039   7.275  -8.590  0.00  0.00    -0.287 OA
ENDBRANCH  10  13
ENDBRANCH   9  10
ENDBRANCH   1   9
TORSDOF 5
REMARK  Name = ../refined-set-2016/4zb8/4zb8_pocket.pdb
REMARK  221 active torsions:
REMARK  status: ('A' for Active; 'I' for Inactive)
REMARK    1  A    between atoms: _1  and  _3
REMARK    2  A    between atoms: _3  and  _4
REMARK    3  A    between atoms: _3  and  _6
REMARK    4  A    between atoms: _6  and  _7
REMARK    5  A    between atoms: _12  and  _13
REMARK    6  A    between atoms: _15  and  _17
REMARK    7  A    between atoms: _17  and  _18
REMARK    8  A    between atoms: _17  and  _20
REMARK    9  A    between atoms: _20  and  _21
REMARK   10  A    between atoms: _24  and  _26
REMARK   11  A    between atoms: _26  and  _27
REMARK   12  A    between atoms: _26  and  _29
REMARK   13  A    between atoms: _29  and  _30
REMARK   14  A    between atoms: _35  and  _37
REMARK   15  A    between atoms: _37  and  _38
REMARK   16  A    between atoms: _40  and  _42
REMARK   17  A    between atoms: _42  and  _43
REMARK   18  A    between atoms: _46  and  _47
REMARK   19  A    between atoms: _52  and  _54
REMARK   20  A    between atoms: _54  and  _55
REMARK   21  A    between atoms: _54  and  _57
REMARK   22  A    between atoms: _57  and  _58
REMARK   23  A    between atoms: _63  and  _65
REMARK   24  A    between atoms: _65  and  _66
REMARK   25  A    between atoms: _68  and  _70
REMARK   26  A    between atoms: _70  and  _71
REMARK   27  A    between atoms: _70  and  _73
REMARK   28  A    between atoms: _73  and  _74
REMARK   29  A    between atoms: _84  and  _86
REMARK   30  A    between atoms: _86  and  _87
REMARK   31  A    between atoms: _86  and  _89
REMARK   32  A    between atoms: _89  and  _90
REMARK   33  A    between atoms: _90  and  _91
REMARK   34  A    between atoms: _91  and  _92
REMARK   35  A    between atoms: _92  and  _93
REMARK   36  A    between atoms: _97  and  _99
REMARK   37  A    between atoms: _99  and  _100
REMARK   38  A    between atoms: _99  and  _102
REMARK   39  A    between atoms: _105  and  _107
REMARK   40  A    between atoms: _107  and  _108
REMARK   41  A    between atoms: _107  and  _110
REMARK   42  A    between atoms: _110  and  _111
REMARK   43  A    between atoms: _114  and  _116
REMARK   44  A    between atoms: _116  and  _117
REMARK   45  A    between atoms: _116  and  _119
REMARK   46  A    between atoms: _119  and  _120
REMARK   47  A    between atoms: _126  and  _128
REMARK   48  A    between atoms: _128  and  _129
REMARK   49  A    between atoms: _128  and  _131
REMARK   50  A    between atoms: _131  and  _132
REMARK   51  A    between atoms: _137  and  _139
REMARK   52  A    between atoms: _139  and  _140
REMARK   53  A    between atoms: _139  and  _142
REMARK   54  A    between atoms: _142  and  _143
REMARK   55  A    between atoms: _143  and  _144
REMARK   56  A    between atoms: _144  and  _145
REMARK   57  A    between atoms: _145  and  _146
REMARK   58  A    between atoms: _150  and  _152
REMARK   59  A    between atoms: _152  and  _153
REMARK   60  A    between atoms: _152  and  _155
REMARK   61  A    between atoms: _155  and  _156
REMARK   62  A    between atoms: _161  and  _162
REMARK   63  A    between atoms: _164  and  _166
REMARK   64  A    between atoms: _166  and  _167
REMARK   65  A    between atoms: _166  and  _169
REMARK   66  A    between atoms: _169  and  _170
REMARK   67  A    between atoms: _175  and  _177
REMARK   68  A    between atoms: _177  and  _178
REMARK   69  A    between atoms: _177  and  _180
REMARK   70  A    between atoms: _180  and  _181
REMARK   71  A    between atoms: _186  and  _188
REMARK   72  A    between atoms: _188  and  _189
REMARK   73  A    between atoms: _191  and  _193
REMARK   74  A    between atoms: _193  and  _194
REMARK   75  A    between atoms: _193  and  _196
REMARK   76  A    between atoms: _196  and  _197
REMARK   77  A    between atoms: _197  and  _198
REMARK   78  A    between atoms: _198  and  _199
REMARK   79  A    between atoms: _208  and  _210
REMARK   80  A    between atoms: _210  and  _211
REMARK   81  A    between atoms: _210  and  _213
REMARK   82  A    between atoms: _213  and  _214
REMARK   83  A    between atoms: _218  and  _219
REMARK   84  A    between atoms: _224  and  _226
REMARK   85  A    between atoms: _226  and  _227
REMARK   86  A    between atoms: _230  and  _232
REMARK   87  A    between atoms: _232  and  _233
REMARK   88  A    between atoms: _232  and  _235
REMARK   89  A    between atoms: _235  and  _236
REMARK   90  A    between atoms: _246  and  _248
REMARK   91  A    between atoms: _248  and  _249
REMARK   92  A    between atoms: _248  and  _251
REMARK   93  A    between atoms: _251  and  _252
REMARK   94  A    between atoms: _252  and  _253
REMARK   95  A    between atoms: _256  and  _258
REMARK   96  A    between atoms: _258  and  _259
REMARK   97  A    between atoms: _258  and  _261
REMARK   98  A    between atoms: _261  and  _262
REMARK   99  A    between atoms: _264  and  _266
REMARK  100  A    between atoms: _266  and  _267
REMARK  101  A    between atoms: _266  and  _269
REMARK  102  A    between atoms: _269  and  _270
REMARK  103  A    between atoms: _275  and  _277
REMARK  104  A    between atoms: _277  and  _278
REMARK  105  A    between atoms: _281  and  _283
REMARK  106  A    between atoms: _283  and  _284
REMARK  107  A    between atoms: _283  and  _286
REMARK  108  A    between atoms: _286  and  _287
REMARK  109  A    between atoms: _290  and  _292
REMARK  110  A    between atoms: _292  and  _293
REMARK  111  A    between atoms: _292  and  _295
REMARK  112  A    between atoms: _295  and  _296
REMARK  113  A    between atoms: _299  and  _301
REMARK  114  A    between atoms: _301  and  _302
REMARK  115  A    between atoms: _301  and  _304
REMARK  116  A    between atoms: _304  and  _305
REMARK  117  A    between atoms: _305  and  _306
REMARK  118  A    between atoms: _311  and  _313
REMARK  119  A    between atoms: _313  and  _314
REMARK  120  A    between atoms: _317  and  _319
REMARK  121  A    between atoms: _319  and  _320
REMARK  122  A    between atoms: _319  and  _322
REMARK  123  A    between atoms: _322  and  _323
REMARK  124  A    between atoms: _325  and  _327
REMARK  125  A    between atoms: _327  and  _328
REMARK  126  A    between atoms: _330  and  _332
REMARK  127  A    between atoms: _332  and  _333
REMARK  128  A    between atoms: _332  and  _335
REMARK  129  A    between atoms: _335  and  _336
REMARK  130  A    between atoms: _336  and  _337
REMARK  131  A    between atoms: _342  and  _344
REMARK  132  A    between atoms: _344  and  _345
REMARK  133  A    between atoms: _348  and  _349
REMARK  134  A    between atoms: _354  and  _356
REMARK  135  A    between atoms: _356  and  _357
REMARK  136  A    between atoms: _356  and  _359
REMARK  137  A    between atoms: _359  and  _360
REMARK  138  A    between atoms: _365  and  _366
REMARK  139  A    between atoms: _368  and  _370
REMARK  140  A    between atoms: _370  and  _371
REMARK  141  A    between atoms: _370  and  _373
REMARK  142  A    between atoms: _373  and  _374
REMARK  143  A    between atoms: _379  and  _380
REMARK  144  A    between atoms: _382  and  _384
REMARK  145  A    between atoms: _384  and  _385
REMARK  146  A    between atoms: _387  and  _389
REMARK  147  A    between atoms: _389  and  _390
REMARK  148  A    between atoms: _389  and  _392
REMARK  149  A    between atoms: _392  and  _393
REMARK  150  A    between atoms: _393  and  _394
REMARK  151  A    between atoms: _399  and  _401
REMARK  152  A    between atoms: _401  and  _402
REMARK  153  A    between atoms: _405  and  _407
REMARK  154  A    between atoms: _407  and  _408
REMARK  155  A    between atoms: _411  and  _413
REMARK  156  A    between atoms: _413  and  _414
REMARK  157  A    between atoms: _413  and  _416
REMARK  158  A    between atoms: _416  and  _417
REMARK  159  A    between atoms: _427  and  _429
REMARK  160  A    between atoms: _429  and  _430
REMARK  161  A    between atoms: _429  and  _432
REMARK  162  A    between atoms: _432  and  _433
REMARK  163  A    between atoms: _439  and  _441
REMARK  164  A    between atoms: _441  and  _442
REMARK  165  A    between atoms: _441  and  _444
REMARK  166  A    between atoms: _444  and  _445
REMARK  167  A    between atoms: _450  and  _451
REMARK  168  A    between atoms: _453  and  _455
REMARK  169  A    between atoms: _455  and  _456
REMARK  170  A    between atoms: _455  and  _458
REMARK  171  A    between atoms: _458  and  _459
REMARK  172  A    between atoms: _469  and  _471
REMARK  173  A    between atoms: _471  and  _472
REMARK  174  A    between atoms: _471  and  _474
REMARK  175  A    between atoms: _474  and  _475
REMARK  176  A    between atoms: _480  and  _481
REMARK  177  A    between atoms: _483  and  _485
REMARK  178  A    between atoms: _485  and  _486
REMARK  179  A    between atoms: _485  and  _488
REMARK  180  A    between atoms: _488  and  _489
REMARK  181  A    between atoms: _495  and  _497
REMARK  182  A    between atoms: _497  and  _498
REMARK  183  A    between atoms: _501  and  _503
REMARK  184  A    between atoms: _503  and  _504
REMARK  185  A    between atoms: _503  and  _506
REMARK  186  A    between atoms: _506  and  _507
REMARK  187  A    between atoms: _509  and  _511
REMARK  188  A    between atoms: _511  and  _512
REMARK  189  A    between atoms: _514  and  _516
REMARK  190  A    between atoms: _516  and  _517
REMARK  191  A    between atoms: _516  and  _519
REMARK  192  A    between atoms: _519  and  _520
REMARK  193  A    between atoms: _520  and  _521
REMARK  194  A    between atoms: _527  and  _528
REMARK  195  A    between atoms: _533  and  _535
REMARK  196  A    between atoms: _535  and  _536
REMARK  197  A    between atoms: _535  and  _538
REMARK  198  A    between atoms: _538  and  _539
REMARK  199  A    between atoms: _544  and  _545
REMARK  200  A    between atoms: _547  and  _549
REMARK  201  A    between atoms: _549  and  _550
REMARK  202  A    between atoms: _549  and  _552
REMARK  203  A    between atoms: _552  and  _553
REMARK  204  A    between atoms: _553  and  _554
REMARK  205  A    between atoms: _554  and  _555
REMARK  206  A    between atoms: _564  and  _566
REMARK  207  A    between atoms: _566  and  _567
REMARK  208  A    between atoms: _566  and  _569
REMARK  209  A    between atoms: _569  and  _570
REMARK  210  A    between atoms: _575  and  _576
REMARK  211  A    between atoms: _578  and  _580
REMARK  212  A    between atoms: _580  and  _581
REMARK  213  A    between atoms: _580  and  _583
REMARK  214  A    between atoms: _583  and  _584
REMARK  215  A    between atoms: _584  and  _585
REMARK  216  A    between atoms: _588  and  _590
REMARK  217  A    between atoms: _590  and  _591
REMARK  218  A    between atoms: _590  and  _593
REMARK  219  A    between atoms: _593  and  _594
REMARK  220  A    between atoms: _594  and  _595
REMARK  221  A    between atoms: _595  and  _596
REMARK                            x       y       z     vdW  Elec       q    Type
REMARK                         _______ _______ _______ _____ _____    ______ ____
ROOT
ATOM      1  CG  TRP A   1      -7.007  -1.694 -10.123  0.00  0.00    -0.002 A 
ATOM      2  CD1 TRP A   1      -7.802  -0.889  -9.321  0.00  0.00    +0.068 A 
ATOM      3  NE1 TRP A   1      -7.102   0.201  -8.881  0.00  0.00    -0.352 N 
ATOM      4  HE1 TRP A   1      -7.491   0.941  -8.262  0.00  0.00    +0.166 HD
ATOM      5  CE2 TRP A   1      -5.843   0.189  -9.355  0.00  0.00    +0.056 A 
ATOM      6  CZ2 TRP A   1      -4.796   1.078  -9.178  0.00  0.00    +0.017 A 
ATOM      7  CH2 TRP A   1      -3.597   0.776  -9.814  0.00  0.00    +0.001 A 
ATOM      8  CZ3 TRP A   1      -3.445  -0.367 -10.601  0.00  0.00    +0.000 A 
ATOM      9  CE3 TRP A   1      -4.495  -1.272 -10.790  0.00  0.00    +0.001 A 
ATOM     10  CD2 TRP A   1      -5.707  -1.013 -10.173  0.00  0.00    +0.013 A 
ENDROOT
BRANCH   1  11
ATOM     11  CB  TRP A   1      -7.387  -2.976 -10.810  0.00  0.00    +0.053 C 
BRANCH  11  12
ATOM     12  CA  TRP A   1      -7.132  -2.928 -12.310  0.00  0.00    +0.137 C 
BRANCH  12  13
ATOM     13  N   TRP A   1      -8.330  -2.535 -13.031  0.00  0.00    -0.239 NA
ATOM     14  H   TRP A   1      -9.243  -2.513 -12.534  0.00  0.00    +0.142 HD
ENDBRANCH  12  13
BRANCH  12  15
ATOM     15  C   TRP A   1      -6.572  -4.239 -12.795  0.00  0.00    +0.224 C 
ATOM     16  O   TRP A   1      -5.347  -4.385 -12.957  0.00  0.00    -0.287 OA
ENDBRANCH  12  15
ENDBRANCH  11  12
ENDBRANCH   1  11
TORSDOF 4
REMARK  Name = ../refined-set-2016/4zb8/4zb8_pocket.pdb
REMARK  221 active torsions:
REMARK  status: ('A' for Active; 'I' for Inactive)
REMARK    1  A    between atoms: _1  and  _3
REMARK    2  A    between atoms: _3  and  _4
REMARK    3  A    between atoms: _3  and  _6
REMARK    4  A    between atoms: _6  and  _7
REMARK    5  A    between atoms: _12  and  _13
REMARK    6  A    between atoms: _15  and  _17
REMARK    7  A    between atoms: _17  and  _18
REMARK    8  A    between atoms: _17  and  _20
REMARK    9  A    between atoms: _20  and  _21
REMARK   10  A    between atoms: _24  and  _26
REMARK   11  A    between atoms: _26  and  _27
REMARK   12  A    between atoms: _26  and  _29
REMARK   13  A    between atoms: _29  and  _30
REMARK   14  A    between atoms: _35  and  _37
REMARK   15  A    between atoms: _37  and  _38
REMARK   16  A    between atoms: _40  and  _42
REMARK   17  A    between atoms: _42  and  _43
REMARK   18  A    between atoms: _46  and  _47
REMARK   19  A    between atoms: _52  and  _54
REMARK   20  A    between atoms: _54  and  _55
REMARK   21  A    between atoms: _54  and  _57
REMARK   22  A    between atoms: _57  and  _58
REMARK   23  A    between atoms: _63  and  _65
REMARK   24  A    between atoms: _65  and  _66
REMARK   25  A    between atoms: _68  and  _70
REMARK   26  A    between atoms: _70  and  _71
REMARK   27  A    between atoms: _70  and  _73
REMARK   28  A    between atoms: _73  and  _74
REMARK   29  A    between atoms: _84  and  _86
REMARK   30  A    between atoms: _86  and  _87
REMARK   31  A    between atoms: _86  and  _89
REMARK   32  A    between atoms: _89  and  _90
REMARK   33  A    between atoms: _90  and  _91
REMARK   34  A    between atoms: _91  and  _92
REMARK   35  A    between atoms: _92  and  _93
REMARK   36  A    between atoms: _97  and  _99
REMARK   37  A    between atoms: _99  and  _100
REMARK   38  A    between atoms: _99  and  _102
REMARK   39  A    between atoms: _105  and  _107
REMARK   40  A    between atoms: _107  and  _108
REMARK   41  A    between atoms: _107  and  _110
REMARK   42  A    between atoms: _110  and  _111
REMARK   43  A    between atoms: _114  and  _116
REMARK   44  A    between atoms: _116  and  _117
REMARK   45  A    between atoms: _116  and  _119
REMARK   46  A    between atoms: _119  and  _120
REMARK   47  A    between atoms: _126  and  _128
REMARK   48  A    between atoms: _128  and  _129
REMARK   49  A    between atoms: _128  and  _131
REMARK   50  A    between atoms: _131  and  _132
REMARK   51  A    between atoms: _137  and  _139
REMARK   52  A    between atoms: _139  and  _140
REMARK   53  A    between atoms: _139  and  _142
REMARK   54  A    between atoms: _142  and  _143
REMARK   55  A    between atoms: _143  and  _144
REMARK   56  A    between atoms: _144  and  _145
REMARK   57  A    between atoms: _145  and  _146
REMARK   58  A    between atoms: _150  and  _152
REMARK   59  A    between atoms: _152  and  _153
REMARK   60  A    between atoms: _152  and  _155
REMARK   61  A    between atoms: _155  and  _156
REMARK   62  A    between atoms: _161  and  _162
REMARK   63  A    between atoms: _164  and  _166
REMARK   64  A    between atoms: _166  and  _167
REMARK   65  A    between atoms: _166  and  _169
REMARK   66  A    between atoms: _169  and  _170
REMARK   67  A    between atoms: _175  and  _177
REMARK   68  A    between atoms: _177  and  _178
REMARK   69  A    between atoms: _177  and  _180
REMARK   70  A    between atoms: _180  and  _181
REMARK   71  A    between atoms: _186  and  _188
REMARK   72  A    between atoms: _188  and  _189
REMARK   73  A    between atoms: _191  and  _193
REMARK   74  A    between atoms: _193  and  _194
REMARK   75  A    between atoms: _193  and  _196
REMARK   76  A    between atoms: _196  and  _197
REMARK   77  A    between atoms: _197  and  _198
REMARK   78  A    between atoms: _198  and  _199
REMARK   79  A    between atoms: _208  and  _210
REMARK   80  A    between atoms: _210  and  _211
REMARK   81  A    between atoms: _210  and  _213
REMARK   82  A    between atoms: _213  and  _214
REMARK   83  A    between atoms: _218  and  _219
REMARK   84  A    between atoms: _224  and  _226
REMARK   85  A    between atoms: _226  and  _227
REMARK   86  A    between atoms: _230  and  _232
REMARK   87  A    between atoms: _232  and  _233
REMARK   88  A    between atoms: _232  and  _235
REMARK   89  A    between atoms: _235  and  _236
REMARK   90  A    between atoms: _246  and  _248
REMARK   91  A    between atoms: _248  and  _249
REMARK   92  A    between atoms: _248  and  _251
REMARK   93  A    between atoms: _251  and  _252
REMARK   94  A    between atoms: _252  and  _253
REMARK   95  A    between atoms: _256  and  _258
REMARK   96  A    between atoms: _258  and  _259
REMARK   97  A    between atoms: _258  and  _261
REMARK   98  A    between atoms: _261  and  _262
REMARK   99  A    between atoms: _264  and  _266
REMARK  100  A    between atoms: _266  and  _267
REMARK  101  A    between atoms: _266  and  _269
REMARK  102  A    between atoms: _269  and  _270
REMARK  103  A    between atoms: _275  and  _277
REMARK  104  A    between atoms: _277  and  _278
REMARK  105  A    between atoms: _281  and  _283
REMARK  106  A    between atoms: _283  and  _284
REMARK  107  A    between atoms: _283  and  _286
REMARK  108  A    between atoms: _286  and  _287
REMARK  109  A    between atoms: _290  and  _292
REMARK  110  A    between atoms: _292  and  _293
REMARK  111  A    between atoms: _292  and  _295
REMARK  112  A    between atoms: _295  and  _296
REMARK  113  A    between atoms: _299  and  _301
REMARK  114  A    between atoms: _301  and  _302
REMARK  115  A    between atoms: _301  and  _304
REMARK  116  A    between atoms: _304  and  _305
REMARK  117  A    between atoms: _305  and  _306
REMARK  118  A    between atoms: _311  and  _313
REMARK  119  A    between atoms: _313  and  _314
REMARK  120  A    between atoms: _317  and  _319
REMARK  121  A    between atoms: _319  and  _320
REMARK  122  A    between atoms: _319  and  _322
REMARK  123  A    between atoms: _322  and  _323
REMARK  124  A    between atoms: _325  and  _327
REMARK  125  A    between atoms: _327  and  _328
REMARK  126  A    between atoms: _330  and  _332
REMARK  127  A    between atoms: _332  and  _333
REMARK  128  A    between atoms: _332  and  _335
REMARK  129  A    between atoms: _335  and  _336
REMARK  130  A    between atoms: _336  and  _337
REMARK  131  A    between atoms: _342  and  _344
REMARK  132  A    between atoms: _344  and  _345
REMARK  133  A    between atoms: _348  and  _349
REMARK  134  A    between atoms: _354  and  _356
REMARK  135  A    between atoms: _356  and  _357
REMARK  136  A    between atoms: _356  and  _359
REMARK  137  A    between atoms: _359  and  _360
REMARK  138  A    between atoms: _365  and  _366
REMARK  139  A    between atoms: _368  and  _370
REMARK  140  A    between atoms: _370  and  _371
REMARK  141  A    between atoms: _370  and  _373
REMARK  142  A    between atoms: _373  and  _374
REMARK  143  A    between atoms: _379  and  _380
REMARK  144  A    between atoms: _382  and  _384
REMARK  145  A    between atoms: _384  and  _385
REMARK  146  A    between atoms: _387  and  _389
REMARK  147  A    between atoms: _389  and  _390
REMARK  148  A    between atoms: _389  and  _392
REMARK  149  A    between atoms: _392  and  _393
REMARK  150  A    between atoms: _393  and  _394
REMARK  151  A    between atoms: _399  and  _401
REMARK  152  A    between atoms: _401  and  _402
REMARK  153  A    between atoms: _405  and  _407
REMARK  154  A    between atoms: _407  and  _408
REMARK  155  A    between atoms: _411  and  _413
REMARK  156  A    between atoms: _413  and  _414
REMARK  157  A    between atoms: _413  and  _416
REMARK  158  A    between atoms: _416  and  _417
REMARK  159  A    between atoms: _427  and  _429
REMARK  160  A    between atoms: _429  and  _430
REMARK  161  A    between atoms: _429  and  _432
REMARK  162  A    between atoms: _432  and  _433
REMARK  163  A    between atoms: _439  and  _441
REMARK  164  A    between atoms: _441  and  _442
REMARK  165  A    between atoms: _441  and  _444
REMARK  166  A    between atoms: _444  and  _445
REMARK  167  A    between atoms: _450  and  _451
REMARK  168  A    between atoms: _453  and  _455
REMARK  169  A    between atoms: _455  and  _456
REMARK  170  A    between atoms: _455  and  _458
REMARK  171  A    between atoms: _458  and  _459
REMARK  172  A    between atoms: _469  and  _471
REMARK  173  A    between atoms: _471  and  _472
REMARK  174  A    between atoms: _471  and  _474
REMARK  175  A    between atoms: _474  and  _475
REMARK  176  A    between atoms: _480  and  _481
REMARK  177  A    between atoms: _483  and  _485
REMARK  178  A    between atoms: _485  and  _486
REMARK  179  A    between atoms: _485  and  _488
REMARK  180  A    between atoms: _488  and  _489
REMARK  181  A    between atoms: _495  and  _497
REMARK  182  A    between atoms: _497  and  _498
REMARK  183  A    between atoms: _501  and  _503
REMARK  184  A    between atoms: _503  and  _504
REMARK  185  A    between atoms: _503  and  _506
REMARK  186  A    between atoms: _506  and  _507
REMARK  187  A    between atoms: _509  and  _511
REMARK  188  A    between atoms: _511  and  _512
REMARK  189  A    between atoms: _514  and  _516
REMARK  190  A    between atoms: _516  and  _517
REMARK  191  A    between atoms: _516  and  _519
REMARK  192  A    between atoms: _519  and  _520
REMARK  193  A    between atoms: _520  and  _521
REMARK  194  A    between atoms: _527  and  _528
REMARK  195  A    between atoms: _533  and  _535
REMARK  196  A    between atoms: _535  and  _536
REMARK  197  A    between atoms: _535  and  _538
REMARK  198  A    between atoms: _538  and  _539
REMARK  199  A    between atoms: _544  and  _545
REMARK  200  A    between atoms: _547  and  _549
REMARK  201  A    between atoms: _549  and  _550
REMARK  202  A    between atoms: _549  and  _552
REMARK  203  A    between atoms: _552  and  _553
REMARK  204  A    between atoms: _553  and  _554
REMARK  205  A    between atoms: _554  and  _555
REMARK  206  A    between atoms: _564  and  _566
REMARK  207  A    between atoms: _566  and  _567
REMARK  208  A    between atoms: _566  and  _569
REMARK  209  A    between atoms: _569  and  _570
REMARK  210  A    between atoms: _575  and  _576
REMARK  211  A    between atoms: _578  and  _580
REMARK  212  A    between atoms: _580  and  _581
REMARK  213  A    between atoms: _580  and  _583
REMARK  214  A    between atoms: _583  and  _584
REMARK  215  A    between atoms: _584  and  _585
REMARK  216  A    between atoms: _588  and  _590
REMARK  217  A    between atoms: _590  and  _591
REMARK  218  A    between atoms: _590  and  _593
REMARK  219  A    between atoms: _593  and  _594
REMARK  220  A    between atoms: _594  and  _595
REMARK  221  A    between atoms: _595  and  _596
REMARK                            x       y       z     vdW  Elec       q    Type
REMARK                         _______ _______ _______ _____ _____    ______ ____
ROOT
ATOM      1  C   TYR A   1     -14.107   4.450   1.129  0.00  0.00    +0.239 C 
ATOM      2  N   PHE A   2     -14.185   5.737   1.441  0.00  0.00    -0.298 N 
ATOM      3  H   PHE A   2     -15.109   6.213   1.461  0.00  0.00    +0.150 HD
ATOM      4  O   TYR A   1     -13.042   3.871   0.956  0.00  0.00    -0.274 OA
ENDROOT
BRANCH   1   5
ATOM      5  CA  TYR A   1     -15.422   3.699   0.990  0.00  0.00    +0.149 C 
BRANCH   5   6
ATOM      6  N   TYR A   1     -16.402   4.086   1.997  0.00  0.00    -0.238 NA
ATOM      7  H   TYR A   1     -17.256   4.604   1.707  0.00  0.00    +0.142 HD
ENDBRANCH   5   6
BRANCH   5   8
ATOM      8  CB  TYR A   1     -15.972   3.870  -0.418  0.00  0.00    +0.053 C 
BRANCH   8   9
ATOM      9  CG  TYR A   1     -16.575   2.605  -0.964  0.00  0.00    -0.020 A 
ATOM     10  CD2 TYR A   1     -17.946   2.444  -1.025  0.00  0.00    -0.001 A 
ATOM     11  CE2 TYR A   1     -18.506   1.286  -1.518  0.00  0.00    +0.036 A 
ATOM     12  CZ  TYR A   1     -17.689   0.265  -1.942  0.00  0.00    +0.134 A 
ATOM     13  CE1 TYR A   1     -16.321   0.399  -1.882  0.00  0.00    +0.036 A 
ATOM     14  CD1 TYR A   1     -15.772   1.561  -1.393  0.00  0.00    -0.001 A 
BRANCH  12  15
ATOM     15  OH  TYR A   1     -18.243  -0.887  -2.433  0.00  0.00    -0.506 OA
ATOM     16  HH  TYR A   1     -18.797  -0.674  -3.226  0.00  0.00    +0.292 HD
ENDBRANCH  12  15
ENDBRANCH   8   9
ENDBRANCH   5   8
ENDBRANCH   1   5
BRANCH   2  17
ATOM     17  CA  PHE A   2     -12.978   6.478   1.754  0.00  0.00    +0.141 C 
BRANCH  17  18
ATOM     18  C   PHE A   2     -12.230   5.814   2.908  0.00  0.00    +0.227 C 
ATOM     19  O   PHE A   2     -11.024   5.659   2.849  0.00  0.00    -0.286 OA
ENDBRANCH  17  18
BRANCH  17  20
ATOM     20  CB  PHE A   2     -13.277   7.939   2.068  0.00  0.00    +0.054 C 
BRANCH  20  21
ATOM     21  CG  PHE A   2     -12.047   8.762   2.310  0.00  0.00    -0.020 A 
ATOM     22  CD2 PHE A   2     -11.923   9.524   3.457  0.00  0.00    -0.004 A 
ATOM     23  CE2 PHE A   2     -10.791  10.281   3.684  0.00  0.00    -0.000 A 
ATOM     24  CZ  PHE A   2      -9.767  10.277   2.763  0.00  0.00    -0.000 A 
ATOM     25  CE1 PHE A   2      -9.871   9.523   1.618  0.00  0.00    -0.000 A 
ATOM     26  CD1 PHE A   2     -11.005   8.761   1.395  0.00  0.00    -0.004 A 
ENDBRANCH  20  21
ENDBRANCH  17  20
ENDBRANCH   2  17
TORSDOF 9
REMARK  Name = ../refined-set-2016/4zb8/4zb8_pocket.pdb
REMARK  221 active torsions:
REMARK  status: ('A' for Active; 'I' for Inactive)
REMARK    1  A    between atoms: _1  and  _3
REMARK    2  A    between atoms: _3  and  _4
REMARK    3  A    between atoms: _3  and  _6
REMARK    4  A    between atoms: _6  and  _7
REMARK    5  A    between atoms: _12  and  _13
REMARK    6  A    between atoms: _15  and  _17
REMARK    7  A    between atoms: _17  and  _18
REMARK    8  A    between atoms: _17  and  _20
REMARK    9  A    between atoms: _20  and  _21
REMARK   10  A    between atoms: _24  and  _26
REMARK   11  A    between atoms: _26  and  _27
REMARK   12  A    between atoms: _26  and  _29
REMARK   13  A    between atoms: _29  and  _30
REMARK   14  A    between atoms: _35  and  _37
REMARK   15  A    between atoms: _37  and  _38
REMARK   16  A    between atoms: _40  and  _42
REMARK   17  A    between atoms: _42  and  _43
REMARK   18  A    between atoms: _46  and  _47
REMARK   19  A    between atoms: _52  and  _54
REMARK   20  A    between atoms: _54  and  _55
REMARK   21  A    between atoms: _54  and  _57
REMARK   22  A    between atoms: _57  and  _58
REMARK   23  A    between atoms: _63  and  _65
REMARK   24  A    between atoms: _65  and  _66
REMARK   25  A    between atoms: _68  and  _70
REMARK   26  A    between atoms: _70  and  _71
REMARK   27  A    between atoms: _70  and  _73
REMARK   28  A    between atoms: _73  and  _74
REMARK   29  A    between atoms: _84  and  _86
REMARK   30  A    between atoms: _86  and  _87
REMARK   31  A    between atoms: _86  and  _89
REMARK   32  A    between atoms: _89  and  _90
REMARK   33  A    between atoms: _90  and  _91
REMARK   34  A    between atoms: _91  and  _92
REMARK   35  A    between atoms: _92  and  _93
REMARK   36  A    between atoms: _97  and  _99
REMARK   37  A    between atoms: _99  and  _100
REMARK   38  A    between atoms: _99  and  _102
REMARK   39  A    between atoms: _105  and  _107
REMARK   40  A    between atoms: _107  and  _108
REMARK   41  A    between atoms: _107  and  _110
REMARK   42  A    between atoms: _110  and  _111
REMARK   43  A    between atoms: _114  and  _116
REMARK   44  A    between atoms: _116  and  _117
REMARK   45  A    between atoms: _116  and  _119
REMARK   46  A    between atoms: _119  and  _120
REMARK   47  A    between atoms: _126  and  _128
REMARK   48  A    between atoms: _128  and  _129
REMARK   49  A    between atoms: _128  and  _131
REMARK   50  A    between atoms: _131  and  _132
REMARK   51  A    between atoms: _137  and  _139
REMARK   52  A    between atoms: _139  and  _140
REMARK   53  A    between atoms: _139  and  _142
REMARK   54  A    between atoms: _142  and  _143
REMARK   55  A    between atoms: _143  and  _144
REMARK   56  A    between atoms: _144  and  _145
REMARK   57  A    between atoms: _145  and  _146
REMARK   58  A    between atoms: _150  and  _152
REMARK   59  A    between atoms: _152  and  _153
REMARK   60  A    between atoms: _152  and  _155
REMARK   61  A    between atoms: _155  and  _156
REMARK   62  A    between atoms: _161  and  _162
REMARK   63  A    between atoms: _164  and  _166
REMARK   64  A    between atoms: _166  and  _167
REMARK   65  A    between atoms: _166  and  _169
REMARK   66  A    between atoms: _169  and  _170
REMARK   67  A    between atoms: _175  and  _177
REMARK   68  A    between atoms: _177  and  _178
REMARK   69  A    between atoms: _177  and  _180
REMARK   70  A    between atoms: _180  and  _181
REMARK   71  A    between atoms: _186  and  _188
REMARK   72  A    between atoms: _188  and  _189
REMARK   73  A    between atoms: _191  and  _193
REMARK   74  A    between atoms: _193  and  _194
REMARK   75  A    between atoms: _193  and  _196
REMARK   76  A    between atoms: _196  and  _197
REMARK   77  A    between atoms: _197  and  _198
REMARK   78  A    between atoms: _198  and  _199
REMARK   79  A    between atoms: _208  and  _210
REMARK   80  A    between atoms: _210  and  _211
REMARK   81  A    between atoms: _210  and  _213
REMARK   82  A    between atoms: _213  and  _214
REMARK   83  A    between atoms: _218  and  _219
REMARK   84  A    between atoms: _224  and  _226
REMARK   85  A    between atoms: _226  and  _227
REMARK   86  A    between atoms: _230  and  _232
REMARK   87  A    between atoms: _232  and  _233
REMARK   88  A    between atoms: _232  and  _235
REMARK   89  A    between atoms: _235  and  _236
REMARK   90  A    between atoms: _246  and  _248
REMARK   91  A    between atoms: _248  and  _249
REMARK   92  A    between atoms: _248  and  _251
REMARK   93  A    between atoms: _251  and  _252
REMARK   94  A    between atoms: _252  and  _253
REMARK   95  A    between atoms: _256  and  _258
REMARK   96  A    between atoms: _258  and  _259
REMARK   97  A    between atoms: _258  and  _261
REMARK   98  A    between atoms: _261  and  _262
REMARK   99  A    between atoms: _264  and  _266
REMARK  100  A    between atoms: _266  and  _267
REMARK  101  A    between atoms: _266  and  _269
REMARK  102  A    between atoms: _269  and  _270
REMARK  103  A    between atoms: _275  and  _277
REMARK  104  A    between atoms: _277  and  _278
REMARK  105  A    between atoms: _281  and  _283
REMARK  106  A    between atoms: _283  and  _284
REMARK  107  A    between atoms: _283  and  _286
REMARK  108  A    between atoms: _286  and  _287
REMARK  109  A    between atoms: _290  and  _292
REMARK  110  A    between atoms: _292  and  _293
REMARK  111  A    between atoms: _292  and  _295
REMARK  112  A    between atoms: _295  and  _296
REMARK  113  A    between atoms: _299  and  _301
REMARK  114  A    between atoms: _301  and  _302
REMARK  115  A    between atoms: _301  and  _304
REMARK  116  A    between atoms: _304  and  _305
REMARK  117  A    between atoms: _305  and  _306
REMARK  118  A    between atoms: _311  and  _313
REMARK  119  A    between atoms: _313  and  _314
REMARK  120  A    between atoms: _317  and  _319
REMARK  121  A    between atoms: _319  and  _320
REMARK  122  A    between atoms: _319  and  _322
REMARK  123  A    between atoms: _322  and  _323
REMARK  124  A    between atoms: _325  and  _327
REMARK  125  A    between atoms: _327  and  _328
REMARK  126  A    between atoms: _330  and  _332
REMARK  127  A    between atoms: _332  and  _333
REMARK  128  A    between atoms: _332  and  _335
REMARK  129  A    between atoms: _335  and  _336
REMARK  130  A    between atoms: _336  and  _337
REMARK  131  A    between atoms: _342  and  _344
REMARK  132  A    between atoms: _344  and  _345
REMARK  133  A    between atoms: _348  and  _349
REMARK  134  A    between atoms: _354  and  _356
REMARK  135  A    between atoms: _356  and  _357
REMARK  136  A    between atoms: _356  and  _359
REMARK  137  A    between atoms: _359  and  _360
REMARK  138  A    between atoms: _365  and  _366
REMARK  139  A    between atoms: _368  and  _370
REMARK  140  A    between atoms: _370  and  _371
REMARK  141  A    between atoms: _370  and  _373
REMARK  142  A    between atoms: _373  and  _374
REMARK  143  A    between atoms: _379  and  _380
REMARK  144  A    between atoms: _382  and  _384
REMARK  145  A    between atoms: _384  and  _385
REMARK  146  A    between atoms: _387  and  _389
REMARK  147  A    between atoms: _389  and  _390
REMARK  148  A    between atoms: _389  and  _392
REMARK  149  A    between atoms: _392  and  _393
REMARK  150  A    between atoms: _393  and  _394
REMARK  151  A    between atoms: _399  and  _401
REMARK  152  A    between atoms: _401  and  _402
REMARK  153  A    between atoms: _405  and  _407
REMARK  154  A    between atoms: _407  and  _408
REMARK  155  A    between atoms: _411  and  _413
REMARK  156  A    between atoms: _413  and  _414
REMARK  157  A    between atoms: _413  and  _416
REMARK  158  A    between atoms: _416  and  _417
REMARK  159  A    between atoms: _427  and  _429
REMARK  160  A    between atoms: _429  and  _430
REMARK  161  A    between atoms: _429  and  _432
REMARK  162  A    between atoms: _432  and  _433
REMARK  163  A    between atoms: _439  and  _441
REMARK  164  A    between atoms: _441  and  _442
REMARK  165  A    between atoms: _441  and  _444
REMARK  166  A    between atoms: _444  and  _445
REMARK  167  A    between atoms: _450  and  _451
REMARK  168  A    between atoms: _453  and  _455
REMARK  169  A    between atoms: _455  and  _456
REMARK  170  A    between atoms: _455  and  _458
REMARK  171  A    between atoms: _458  and  _459
REMARK  172  A    between atoms: _469  and  _471
REMARK  173  A    between atoms: _471  and  _472
REMARK  174  A    between atoms: _471  and  _474
REMARK  175  A    between atoms: _474  and  _475
REMARK  176  A    between atoms: _480  and  _481
REMARK  177  A    between atoms: _483  and  _485
REMARK  178  A    between atoms: _485  and  _486
REMARK  179  A    between atoms: _485  and  _488
REMARK  180  A    between atoms: _488  and  _489
REMARK  181  A    between atoms: _495  and  _497
REMARK  182  A    between atoms: _497  and  _498
REMARK  183  A    between atoms: _501  and  _503
REMARK  184  A    between atoms: _503  and  _504
REMARK  185  A    between atoms: _503  and  _506
REMARK  186  A    between atoms: _506  and  _507
REMARK  187  A    between atoms: _509  and  _511
REMARK  188  A    between atoms: _511  and  _512
REMARK  189  A    between atoms: _514  and  _516
REMARK  190  A    between atoms: _516  and  _517
REMARK  191  A    between atoms: _516  and  _519
REMARK  192  A    between atoms: _519  and  _520
REMARK  193  A    between atoms: _520  and  _521
REMARK  194  A    between atoms: _527  and  _528
REMARK  195  A    between atoms: _533  and  _535
REMARK  196  A    between atoms: _535  and  _536
REMARK  197  A    between atoms: _535  and  _538
REMARK  198  A    between atoms: _538  and  _539
REMARK  199  A    between atoms: _544  and  _545
REMARK  200  A    between atoms: _547  and  _549
REMARK  201  A    between atoms: _549  and  _550
REMARK  202  A    between atoms: _549  and  _552
REMARK  203  A    between atoms: _552  and  _553
REMARK  204  A    between atoms: _553  and  _554
REMARK  205  A    between atoms: _554  and  _555
REMARK  206  A    between atoms: _564  and  _566
REMARK  207  A    between atoms: _566  and  _567
REMARK  208  A    between atoms: _566  and  _569
REMARK  209  A    between atoms: _569  and  _570
REMARK  210  A    between atoms: _575  and  _576
REMARK  211  A    between atoms: _578  and  _580
REMARK  212  A    between atoms: _580  and  _581
REMARK  213  A    between atoms: _580  and  _583
REMARK  214  A    between atoms: _583  and  _584
REMARK  215  A    between atoms: _584  and  _585
REMARK  216  A    between atoms: _588  and  _590
REMARK  217  A    between atoms: _590  and  _591
REMARK  218  A    between atoms: _590  and  _593
REMARK  219  A    between atoms: _593  and  _594
REMARK  220  A    between atoms: _594  and  _595
REMARK  221  A    between atoms: _595  and  _596
REMARK                            x       y       z     vdW  Elec       q    Type
REMARK                         _______ _______ _______ _____ _____    ______ ____
ROOT
ATOM      1  C   SER A   2      -8.799   3.245   0.650  0.00  0.00    +0.243 C 
ATOM      2  N   GLY A   3      -9.153   4.340   1.314  0.00  0.00    -0.295 N 
ATOM      3  H   GLY A   3     -10.110   4.397   1.718  0.00  0.00    +0.150 HD
ATOM      4  O   SER A   2      -7.710   3.114   0.107  0.00  0.00    -0.273 OA
ENDROOT
BRANCH   1   5
ATOM      5  CA  SER A   2      -9.841   2.125   0.588  0.00  0.00    +0.178 C 
BRANCH   5   8
ATOM      6  C   ALA A   1     -10.860   1.131   2.556  0.00  0.00    +0.238 C 
ATOM      7  O   ALA A   1     -10.096   0.177   2.512  0.00  0.00    -0.274 OA
ATOM      8  N   SER A   2     -10.767   2.157   1.720  0.00  0.00    -0.295 N 
ATOM      9  H   SER A   2     -11.361   2.997   1.872  0.00  0.00    +0.150 HD
BRANCH   6  10
ATOM     10  CA  ALA A   1     -11.993   1.179   3.591  0.00  0.00    +0.145 C 
ATOM     11  CB  ALA A   1     -13.164   0.316   3.144  0.00  0.00    +0.028 C 
BRANCH  10  12
ATOM     12  N   ALA A   1     -12.441   2.539   3.878  0.00  0.00    -0.238 NA
ATOM     13  H   ALA A   1     -13.355   2.862   3.500  0.00  0.00    +0.142 HD
ENDBRANCH  10  12
ENDBRANCH   6  10
ENDBRANCH   5   8
BRANCH   5  14
ATOM     14  CB  SER A   2     -10.597   2.171  -0.747  0.00  0.00    +0.166 C 
BRANCH  14  15
ATOM     15  OG  SER A   2     -11.003   3.477  -1.097  0.00  0.00    -0.380 OA
ATOM     16  H   SER A   2     -11.603   3.834  -0.395  0.00  0.00    +0.211 HD
ENDBRANCH  14  15
ENDBRANCH   5  14
ENDBRANCH   1   5
BRANCH   2  17
ATOM     17  CA  GLY A   3      -8.247   5.460   1.493  0.00  0.00    +0.176 C 
BRANCH  17  18
ATOM     18  C   GLY A   3      -7.511   5.492   2.822  0.00  0.00    +0.243 C 
ATOM     19  N   GLN A   4      -8.179   5.074   3.894  0.00  0.00    -0.298 N 
ATOM     20  H   GLN A   4      -9.170   4.773   3.801  0.00  0.00    +0.150 HD
ATOM     21  O   GLY A   3      -6.357   5.901   2.882  0.00  0.00    -0.273 OA
BRANCH  19  22
ATOM     22  CA  GLN A   4      -7.529   5.035   5.199  0.00  0.00    +0.137 C 
BRANCH  22  23
ATOM     23  C   GLN A   4      -6.879   3.692   5.544  0.00  0.00    +0.227 C 
ATOM     24  O   GLN A   4      -5.682   3.636   5.757  0.00  0.00    -0.286 OA
ENDBRANCH  22  23
BRANCH  22  25
ATOM     25  CB  GLN A   4      -8.527   5.411   6.302  0.00  0.00    +0.037 C 
BRANCH  25  26
ATOM     26  CG  GLN A   4      -7.896   5.726   7.652  0.00  0.00    +0.087 C 
BRANCH  26  27
ATOM     27  CD  GLN A   4      -8.776   5.327   8.825  0.00  0.00    +0.219 C 
ATOM     28  NE2 GLN A   4      -8.644   6.042   9.931  0.00  0.00    -0.329 N 
ATOM     29 HE21 GLN A   4      -9.219   5.816  10.768  0.00  0.00    +0.145 HD
ATOM     30 HE22 GLN A   4      -7.966   6.830   9.963  0.00  0.00    +0.145 HD
ATOM     31  OE1 GLN A   4      -9.560   4.390   8.736  0.00  0.00    -0.275 OA
ENDBRANCH  26  27
ENDBRANCH  25  26
ENDBRANCH  22  25
ENDBRANCH  19  22
ENDBRANCH  17  18
ENDBRANCH   2  17
TORSDOF 13
REMARK  Name = ../refined-set-2016/4zb8/4zb8_pocket.pdb
REMARK  221 active torsions:
REMARK  status: ('A' for Active; 'I' for Inactive)
REMARK    1  A    between atoms: _1  and  _3
REMARK    2  A    between atoms: _3  and  _4
REMARK    3  A    between atoms: _3  and  _6
REMARK    4  A    between atoms: _6  and  _7
REMARK    5  A    between atoms: _12  and  _13
REMARK    6  A    between atoms: _15  and  _17
REMARK    7  A    between atoms: _17  and  _18
REMARK    8  A    between atoms: _17  and  _20
REMARK    9  A    between atoms: _20  and  _21
REMARK   10  A    between atoms: _24  and  _26
REMARK   11  A    between atoms: _26  and  _27
REMARK   12  A    between atoms: _26  and  _29
REMARK   13  A    between atoms: _29  and  _30
REMARK   14  A    between atoms: _35  and  _37
REMARK   15  A    between atoms: _37  and  _38
REMARK   16  A    between atoms: _40  and  _42
REMARK   17  A    between atoms: _42  and  _43
REMARK   18  A    between atoms: _46  and  _47
REMARK   19  A    between atoms: _52  and  _54
REMARK   20  A    between atoms: _54  and  _55
REMARK   21  A    between atoms: _54  and  _57
REMARK   22  A    between atoms: _57  and  _58
REMARK   23  A    between atoms: _63  and  _65
REMARK   24  A    between atoms: _65  and  _66
REMARK   25  A    between atoms: _68  and  _70
REMARK   26  A    between atoms: _70  and  _71
REMARK   27  A    between atoms: _70  and  _73
REMARK   28  A    between atoms: _73  and  _74
REMARK   29  A    between atoms: _84  and  _86
REMARK   30  A    between atoms: _86  and  _87
REMARK   31  A    between atoms: _86  and  _89
REMARK   32  A    between atoms: _89  and  _90
REMARK   33  A    between atoms: _90  and  _91
REMARK   34  A    between atoms: _91  and  _92
REMARK   35  A    between atoms: _92  and  _93
REMARK   36  A    between atoms: _97  and  _99
REMARK   37  A    between atoms: _99  and  _100
REMARK   38  A    between atoms: _99  and  _102
REMARK   39  A    between atoms: _105  and  _107
REMARK   40  A    between atoms: _107  and  _108
REMARK   41  A    between atoms: _107  and  _110
REMARK   42  A    between atoms: _110  and  _111
REMARK   43  A    between atoms: _114  and  _116
REMARK   44  A    between atoms: _116  and  _117
REMARK   45  A    between atoms: _116  and  _119
REMARK   46  A    between atoms: _119  and  _120
REMARK   47  A    between atoms: _126  and  _128
REMARK   48  A    between atoms: _128  and  _129
REMARK   49  A    between atoms: _128  and  _131
REMARK   50  A    between atoms: _131  and  _132
REMARK   51  A    between atoms: _137  and  _139
REMARK   52  A    between atoms: _139  and  _140
REMARK   53  A    between atoms: _139  and  _142
REMARK   54  A    between atoms: _142  and  _143
REMARK   55  A    between atoms: _143  and  _144
REMARK   56  A    between atoms: _144  and  _145
REMARK   57  A    between atoms: _145  and  _146
REMARK   58  A    between atoms: _150  and  _152
REMARK   59  A    between atoms: _152  and  _153
REMARK   60  A    between atoms: _152  and  _155
REMARK   61  A    between atoms: _155  and  _156
REMARK   62  A    between atoms: _161  and  _162
REMARK   63  A    between atoms: _164  and  _166
REMARK   64  A    between atoms: _166  and  _167
REMARK   65  A    between atoms: _166  and  _169
REMARK   66  A    between atoms: _169  and  _170
REMARK   67  A    between atoms: _175  and  _177
REMARK   68  A    between atoms: _177  and  _178
REMARK   69  A    between atoms: _177  and  _180
REMARK   70  A    between atoms: _180  and  _181
REMARK   71  A    between atoms: _186  and  _188
REMARK   72  A    between atoms: _188  and  _189
REMARK   73  A    between atoms: _191  and  _193
REMARK   74  A    between atoms: _193  and  _194
REMARK   75  A    between atoms: _193  and  _196
REMARK   76  A    between atoms: _196  and  _197
REMARK   77  A    between atoms: _197  and  _198
REMARK   78  A    between atoms: _198  and  _199
REMARK   79  A    between atoms: _208  and  _210
REMARK   80  A    between atoms: _210  and  _211
REMARK   81  A    between atoms: _210  and  _213
REMARK   82  A    between atoms: _213  and  _214
REMARK   83  A    between atoms: _218  and  _219
REMARK   84  A    between atoms: _224  and  _226
REMARK   85  A    between atoms: _226  and  _227
REMARK   86  A    between atoms: _230  and  _232
REMARK   87  A    between atoms: _232  and  _233
REMARK   88  A    between atoms: _232  and  _235
REMARK   89  A    between atoms: _235  and  _236
REMARK   90  A    between atoms: _246  and  _248
REMARK   91  A    between atoms: _248  and  _249
REMARK   92  A    between atoms: _248  and  _251
REMARK   93  A    between atoms: _251  and  _252
REMARK   94  A    between atoms: _252  and  _253
REMARK   95  A    between atoms: _256  and  _258
REMARK   96  A    between atoms: _258  and  _259
REMARK   97  A    between atoms: _258  and  _261
REMARK   98  A    between atoms: _261  and  _262
REMARK   99  A    between atoms: _264  and  _266
REMARK  100  A    between atoms: _266  and  _267
REMARK  101  A    between atoms: _266  and  _269
REMARK  102  A    between atoms: _269  and  _270
REMARK  103  A    between atoms: _275  and  _277
REMARK  104  A    between atoms: _277  and  _278
REMARK  105  A    between atoms: _281  and  _283
REMARK  106  A    between atoms: _283  and  _284
REMARK  107  A    between atoms: _283  and  _286
REMARK  108  A    between atoms: _286  and  _287
REMARK  109  A    between atoms: _290  and  _292
REMARK  110  A    between atoms: _292  and  _293
REMARK  111  A    between atoms: _292  and  _295
REMARK  112  A    between atoms: _295  and  _296
REMARK  113  A    between atoms: _299  and  _301
REMARK  114  A    between atoms: _301  and  _302
REMARK  115  A    between atoms: _301  and  _304
REMARK  116  A    between atoms: _304  and  _305
REMARK  117  A    between atoms: _305  and  _306
REMARK  118  A    between atoms: _311  and  _313
REMARK  119  A    between atoms: _313  and  _314
REMARK  120  A    between atoms: _317  and  _319
REMARK  121  A    between atoms: _319  and  _320
REMARK  122  A    between atoms: _319  and  _322
REMARK  123  A    between atoms: _322  and  _323
REMARK  124  A    between atoms: _325  and  _327
REMARK  125  A    between atoms: _327  and  _328
REMARK  126  A    between atoms: _330  and  _332
REMARK  127  A    between atoms: _332  and  _333
REMARK  128  A    between atoms: _332  and  _335
REMARK  129  A    between atoms: _335  and  _336
REMARK  130  A    between atoms: _336  and  _337
REMARK  131  A    between atoms: _342  and  _344
REMARK  132  A    between atoms: _344  and  _345
REMARK  133  A    between atoms: _348  and  _349
REMARK  134  A    between atoms: _354  and  _356
REMARK  135  A    between atoms: _356  and  _357
REMARK  136  A    between atoms: _356  and  _359
REMARK  137  A    between atoms: _359  and  _360
REMARK  138  A    between atoms: _365  and  _366
REMARK  139  A    between atoms: _368  and  _370
REMARK  140  A    between atoms: _370  and  _371
REMARK  141  A    between atoms: _370  and  _373
REMARK  142  A    between atoms: _373  and  _374
REMARK  143  A    between atoms: _379  and  _380
REMARK  144  A    between atoms: _382  and  _384
REMARK  145  A    between atoms: _384  and  _385
REMARK  146  A    between atoms: _387  and  _389
REMARK  147  A    between atoms: _389  and  _390
REMARK  148  A    between atoms: _389  and  _392
REMARK  149  A    between atoms: _392  and  _393
REMARK  150  A    between atoms: _393  and  _394
REMARK  151  A    between atoms: _399  and  _401
REMARK  152  A    between atoms: _401  and  _402
REMARK  153  A    between atoms: _405  and  _407
REMARK  154  A    between atoms: _407  and  _408
REMARK  155  A    between atoms: _411  and  _413
REMARK  156  A    between atoms: _413  and  _414
REMARK  157  A    between atoms: _413  and  _416
REMARK  158  A    between atoms: _416  and  _417
REMARK  159  A    between atoms: _427  and  _429
REMARK  160  A    between atoms: _429  and  _430
REMARK  161  A    between atoms: _429  and  _432
REMARK  162  A    between atoms: _432  and  _433
REMARK  163  A    between atoms: _439  and  _441
REMARK  164  A    between atoms: _441  and  _442
REMARK  165  A    between atoms: _441  and  _444
REMARK  166  A    between atoms: _444  and  _445
REMARK  167  A    between atoms: _450  and  _451
REMARK  168  A    between atoms: _453  and  _455
REMARK  169  A    between atoms: _455  and  _456
REMARK  170  A    between atoms: _455  and  _458
REMARK  171  A    between atoms: _458  and  _459
REMARK  172  A    between atoms: _469  and  _471
REMARK  173  A    between atoms: _471  and  _472
REMARK  174  A    between atoms: _471  and  _474
REMARK  175  A    between atoms: _474  and  _475
REMARK  176  A    between atoms: _480  and  _481
REMARK  177  A    between atoms: _483  and  _485
REMARK  178  A    between atoms: _485  and  _486
REMARK  179  A    between atoms: _485  and  _488
REMARK  180  A    between atoms: _488  and  _489
REMARK  181  A    between atoms: _495  and  _497
REMARK  182  A    between atoms: _497  and  _498
REMARK  183  A    between atoms: _501  and  _503
REMARK  184  A    between atoms: _503  and  _504
REMARK  185  A    between atoms: _503  and  _506
REMARK  186  A    between atoms: _506  and  _507
REMARK  187  A    between atoms: _509  and  _511
REMARK  188  A    between atoms: _511  and  _512
REMARK  189  A    between atoms: _514  and  _516
REMARK  190  A    between atoms: _516  and  _517
REMARK  191  A    between atoms: _516  and  _519
REMARK  192  A    between atoms: _519  and  _520
REMARK  193  A    between atoms: _520  and  _521
REMARK  194  A    between atoms: _527  and  _528
REMARK  195  A    between atoms: _533  and  _535
REMARK  196  A    between atoms: _535  and  _536
REMARK  197  A    between atoms: _535  and  _538
REMARK  198  A    between atoms: _538  and  _539
REMARK  199  A    between atoms: _544  and  _545
REMARK  200  A    between atoms: _547  and  _549
REMARK  201  A    between atoms: _549  and  _550
REMARK  202  A    between atoms: _549  and  _552
REMARK  203  A    between atoms: _552  and  _553
REMARK  204  A    between atoms: _553  and  _554
REMARK  205  A    between atoms: _554  and  _555
REMARK  206  A    between atoms: _564  and  _566
REMARK  207  A    between atoms: _566  and  _567
REMARK  208  A    between atoms: _566  and  _569
REMARK  209  A    between atoms: _569  and  _570
REMARK  210  A    between atoms: _575  and  _576
REMARK  211  A    between atoms: _578  and  _580
REMARK  212  A    between atoms: _580  and  _581
REMARK  213  A    between atoms: _580  and  _583
REMARK  214  A    between atoms: _583  and  _584
REMARK  215  A    between atoms: _584  and  _585
REMARK  216  A    between atoms: _588  and  _590
REMARK  217  A    between atoms: _590  and  _591
REMARK  218  A    between atoms: _590  and  _593
REMARK  219  A    between atoms: _593  and  _594
REMARK  220  A    between atoms: _594  and  _595
REMARK  221  A    between atoms: _595  and  _596
REMARK                            x       y       z     vdW  Elec       q    Type
REMARK                         _______ _______ _______ _____ _____    ______ ____
ROOT
ATOM      1  CA  TYR A   2      -2.544   3.040   3.310  0.00  0.00    +0.141 C 
ENDROOT
BRANCH   1   4
ATOM      2  C   PRO A   1      -3.613   0.850   3.380  0.00  0.00    +0.239 C 
ATOM      3  O   PRO A   1      -2.568   0.277   3.661  0.00  0.00    -0.274 OA
ATOM      4  N   TYR A   2      -3.710   2.166   3.242  0.00  0.00    -0.298 N 
ATOM      5  H   TYR A   2      -4.647   2.588   3.080  0.00  0.00    +0.150 HD
BRANCH   2   7
ATOM      6  N   PRO A   1      -6.007   0.643   3.964  0.00  0.00    -0.210 NA
ATOM      7  CA  PRO A   1      -4.903   0.047   3.205  0.00  0.00    +0.149 C 
ATOM      8  CB  PRO A   1      -5.392   0.119   1.760  0.00  0.00    +0.028 C 
ATOM      9  CG  PRO A   1      -6.876   0.172   1.863  0.00  0.00    +0.021 C 
ATOM     10  CD  PRO A   1      -7.155   0.963   3.103  0.00  0.00    +0.089 C 
ENDBRANCH   2   7
ENDBRANCH   1   4
BRANCH   1  11
ATOM     11  C   TYR A   2      -1.958   3.144   4.728  0.00  0.00    +0.227 C 
ATOM     12  O   TYR A   2      -0.747   3.097   4.904  0.00  0.00    -0.286 OA
ENDBRANCH   1  11
BRANCH   1  13
ATOM     13  CB  TYR A   2      -2.875   4.428   2.759  0.00  0.00    +0.054 C 
BRANCH  13  14
ATOM     14  CG  TYR A   2      -3.150   4.460   1.270  0.00  0.00    -0.020 A 
ATOM     15  CD2 TYR A   2      -4.447   4.427   0.785  0.00  0.00    -0.001 A 
ATOM     16  CE2 TYR A   2      -4.705   4.456  -0.572  0.00  0.00    +0.036 A 
ATOM     17  CZ  TYR A   2      -3.661   4.526  -1.470  0.00  0.00    +0.134 A 
ATOM     18  CE1 TYR A   2      -2.362   4.565  -1.013  0.00  0.00    +0.036 A 
ATOM     19  CD1 TYR A   2      -2.112   4.530   0.350  0.00  0.00    -0.001 A 
BRANCH  17  20
ATOM     20  OH  TYR A   2      -3.922   4.558  -2.820  0.00  0.00    -0.506 OA
ATOM     21  HH  TYR A   2      -3.068   4.608  -3.319  0.00  0.00    +0.292 HD
ENDBRANCH  17  20
ENDBRANCH  13  14
ENDBRANCH   1  13
TORSDOF 6
REMARK  Name = ../refined-set-2016/4zb8/4zb8_pocket.pdb
REMARK  221 active torsions:
REMARK  status: ('A' for Active; 'I' for Inactive)
REMARK    1  A    between atoms: _1  and  _3
REMARK    2  A    between atoms: _3  and  _4
REMARK    3  A    between atoms: _3  and  _6
REMARK    4  A    between atoms: _6  and  _7
REMARK    5  A    between atoms: _12  and  _13
REMARK    6  A    between atoms: _15  and  _17
REMARK    7  A    between atoms: _17  and  _18
REMARK    8  A    between atoms: _17  and  _20
REMARK    9  A    between atoms: _20  and  _21
REMARK   10  A    between atoms: _24  and  _26
REMARK   11  A    between atoms: _26  and  _27
REMARK   12  A    between atoms: _26  and  _29
REMARK   13  A    between atoms: _29  and  _30
REMARK   14  A    between atoms: _35  and  _37
REMARK   15  A    between atoms: _37  and  _38
REMARK   16  A    between atoms: _40  and  _42
REMARK   17  A    between atoms: _42  and  _43
REMARK   18  A    between atoms: _46  and  _47
REMARK   19  A    between atoms: _52  and  _54
REMARK   20  A    between atoms: _54  and  _55
REMARK   21  A    between atoms: _54  and  _57
REMARK   22  A    between atoms: _57  and  _58
REMARK   23  A    between atoms: _63  and  _65
REMARK   24  A    between atoms: _65  and  _66
REMARK   25  A    between atoms: _68  and  _70
REMARK   26  A    between atoms: _70  and  _71
REMARK   27  A    between atoms: _70  and  _73
REMARK   28  A    between atoms: _73  and  _74
REMARK   29  A    between atoms: _84  and  _86
REMARK   30  A    between atoms: _86  and  _87
REMARK   31  A    between atoms: _86  and  _89
REMARK   32  A    between atoms: _89  and  _90
REMARK   33  A    between atoms: _90  and  _91
REMARK   34  A    between atoms: _91  and  _92
REMARK   35  A    between atoms: _92  and  _93
REMARK   36  A    between atoms: _97  and  _99
REMARK   37  A    between atoms: _99  and  _100
REMARK   38  A    between atoms: _99  and  _102
REMARK   39  A    between atoms: _105  and  _107
REMARK   40  A    between atoms: _107  and  _108
REMARK   41  A    between atoms: _107  and  _110
REMARK   42  A    between atoms: _110  and  _111
REMARK   43  A    between atoms: _114  and  _116
REMARK   44  A    between atoms: _116  and  _117
REMARK   45  A    between atoms: _116  and  _119
REMARK   46  A    between atoms: _119  and  _120
REMARK   47  A    between atoms: _126  and  _128
REMARK   48  A    between atoms: _128  and  _129
REMARK   49  A    between atoms: _128  and  _131
REMARK   50  A    between atoms: _131  and  _132
REMARK   51  A    between atoms: _137  and  _139
REMARK   52  A    between atoms: _139  and  _140
REMARK   53  A    between atoms: _139  and  _142
REMARK   54  A    between atoms: _142  and  _143
REMARK   55  A    between atoms: _143  and  _144
REMARK   56  A    between atoms: _144  and  _145
REMARK   57  A    between atoms: _145  and  _146
REMARK   58  A    between atoms: _150  and  _152
REMARK   59  A    between atoms: _152  and  _153
REMARK   60  A    between atoms: _152  and  _155
REMARK   61  A    between atoms: _155  and  _156
REMARK   62  A    between atoms: _161  and  _162
REMARK   63  A    between atoms: _164  and  _166
REMARK   64  A    between atoms: _166  and  _167
REMARK   65  A    between atoms: _166  and  _169
REMARK   66  A    between atoms: _169  and  _170
REMARK   67  A    between atoms: _175  and  _177
REMARK   68  A    between atoms: _177  and  _178
REMARK   69  A    between atoms: _177  and  _180
REMARK   70  A    between atoms: _180  and  _181
REMARK   71  A    between atoms: _186  and  _188
REMARK   72  A    between atoms: _188  and  _189
REMARK   73  A    between atoms: _191  and  _193
REMARK   74  A    between atoms: _193  and  _194
REMARK   75  A    between atoms: _193  and  _196
REMARK   76  A    between atoms: _196  and  _197
REMARK   77  A    between atoms: _197  and  _198
REMARK   78  A    between atoms: _198  and  _199
REMARK   79  A    between atoms: _208  and  _210
REMARK   80  A    between atoms: _210  and  _211
REMARK   81  A    between atoms: _210  and  _213
REMARK   82  A    between atoms: _213  and  _214
REMARK   83  A    between atoms: _218  and  _219
REMARK   84  A    between atoms: _224  and  _226
REMARK   85  A    between atoms: _226  and  _227
REMARK   86  A    between atoms: _230  and  _232
REMARK   87  A    between atoms: _232  and  _233
REMARK   88  A    between atoms: _232  and  _235
REMARK   89  A    between atoms: _235  and  _236
REMARK   90  A    between atoms: _246  and  _248
REMARK   91  A    between atoms: _248  and  _249
REMARK   92  A    between atoms: _248  and  _251
REMARK   93  A    between atoms: _251  and  _252
REMARK   94  A    between atoms: _252  and  _253
REMARK   95  A    between atoms: _256  and  _258
REMARK   96  A    between atoms: _258  and  _259
REMARK   97  A    between atoms: _258  and  _261
REMARK   98  A    between atoms: _261  and  _262
REMARK   99  A    between atoms: _264  and  _266
REMARK  100  A    between atoms: _266  and  _267
REMARK  101  A    between atoms: _266  and  _269
REMARK  102  A    between atoms: _269  and  _270
REMARK  103  A    between atoms: _275  and  _277
REMARK  104  A    between atoms: _277  and  _278
REMARK  105  A    between atoms: _281  and  _283
REMARK  106  A    between atoms: _283  and  _284
REMARK  107  A    between atoms: _283  and  _286
REMARK  108  A    between atoms: _286  and  _287
REMARK  109  A    between atoms: _290  and  _292
REMARK  110  A    between atoms: _292  and  _293
REMARK  111  A    between atoms: _292  and  _295
REMARK  112  A    between atoms: _295  and  _296
REMARK  113  A    between atoms: _299  and  _301
REMARK  114  A    between atoms: _301  and  _302
REMARK  115  A    between atoms: _301  and  _304
REMARK  116  A    between atoms: _304  and  _305
REMARK  117  A    between atoms: _305  and  _306
REMARK  118  A    between atoms: _311  and  _313
REMARK  119  A    between atoms: _313  and  _314
REMARK  120  A    between atoms: _317  and  _319
REMARK  121  A    between atoms: _319  and  _320
REMARK  122  A    between atoms: _319  and  _322
REMARK  123  A    between atoms: _322  and  _323
REMARK  124  A    between atoms: _325  and  _327
REMARK  125  A    between atoms: _327  and  _328
REMARK  126  A    between atoms: _330  and  _332
REMARK  127  A    between atoms: _332  and  _333
REMARK  128  A    between atoms: _332  and  _335
REMARK  129  A    between atoms: _335  and  _336
REMARK  130  A    between atoms: _336  and  _337
REMARK  131  A    between atoms: _342  and  _344
REMARK  132  A    between atoms: _344  and  _345
REMARK  133  A    between atoms: _348  and  _349
REMARK  134  A    between atoms: _354  and  _356
REMARK  135  A    between atoms: _356  and  _357
REMARK  136  A    between atoms: _356  and  _359
REMARK  137  A    between atoms: _359  and  _360
REMARK  138  A    between atoms: _365  and  _366
REMARK  139  A    between atoms: _368  and  _370
REMARK  140  A    between atoms: _370  and  _371
REMARK  141  A    between atoms: _370  and  _373
REMARK  142  A    between atoms: _373  and  _374
REMARK  143  A    between atoms: _379  and  _380
REMARK  144  A    between atoms: _382  and  _384
REMARK  145  A    between atoms: _384  and  _385
REMARK  146  A    between atoms: _387  and  _389
REMARK  147  A    between atoms: _389  and  _390
REMARK  148  A    between atoms: _389  and  _392
REMARK  149  A    between atoms: _392  and  _393
REMARK  150  A    between atoms: _393  and  _394
REMARK  151  A    between atoms: _399  and  _401
REMARK  152  A    between atoms: _401  and  _402
REMARK  153  A    between atoms: _405  and  _407
REMARK  154  A    between atoms: _407  and  _408
REMARK  155  A    between atoms: _411  and  _413
REMARK  156  A    between atoms: _413  and  _414
REMARK  157  A    between atoms: _413  and  _416
REMARK  158  A    between atoms: _416  and  _417
REMARK  159  A    between atoms: _427  and  _429
REMARK  160  A    between atoms: _429  and  _430
REMARK  161  A    between atoms: _429  and  _432
REMARK  162  A    between atoms: _432  and  _433
REMARK  163  A    between atoms: _439  and  _441
REMARK  164  A    between atoms: _441  and  _442
REMARK  165  A    between atoms: _441  and  _444
REMARK  166  A    between atoms: _444  and  _445
REMARK  167  A    between atoms: _450  and  _451
REMARK  168  A    between atoms: _453  and  _455
REMARK  169  A    between atoms: _455  and  _456
REMARK  170  A    between atoms: _455  and  _458
REMARK  171  A    between atoms: _458  and  _459
REMARK  172  A    between atoms: _469  and  _471
REMARK  173  A    between atoms: _471  and  _472
REMARK  174  A    between atoms: _471  and  _474
REMARK  175  A    between atoms: _474  and  _475
REMARK  176  A    between atoms: _480  and  _481
REMARK  177  A    between atoms: _483  and  _485
REMARK  178  A    between atoms: _485  and  _486
REMARK  179  A    between atoms: _485  and  _488
REMARK  180  A    between atoms: _488  and  _489
REMARK  181  A    between atoms: _495  and  _497
REMARK  182  A    between atoms: _497  and  _498
REMARK  183  A    between atoms: _501  and  _503
REMARK  184  A    between atoms: _503  and  _504
REMARK  185  A    between atoms: _503  and  _506
REMARK  186  A    between atoms: _506  and  _507
REMARK  187  A    between atoms: _509  and  _511
REMARK  188  A    between atoms: _511  and  _512
REMARK  189  A    between atoms: _514  and  _516
REMARK  190  A    between atoms: _516  and  _517
REMARK  191  A    between atoms: _516  and  _519
REMARK  192  A    between atoms: _519  and  _520
REMARK  193  A    between atoms: _520  and  _521
REMARK  194  A    between atoms: _527  and  _528
REMARK  195  A    between atoms: _533  and  _535
REMARK  196  A    between atoms: _535  and  _536
REMARK  197  A    between atoms: _535  and  _538
REMARK  198  A    between atoms: _538  and  _539
REMARK  199  A    between atoms: _544  and  _545
REMARK  200  A    between atoms: _547  and  _549
REMARK  201  A    between atoms: _549  and  _550
REMARK  202  A    between atoms: _549  and  _552
REMARK  203  A    between atoms: _552  and  _553
REMARK  204  A    between atoms: _553  and  _554
REMARK  205  A    between atoms: _554  and  _555
REMARK  206  A    between atoms: _564  and  _566
REMARK  207  A    between atoms: _566  and  _567
REMARK  208  A    between atoms: _566  and  _569
REMARK  209  A    between atoms: _569  and  _570
REMARK  210  A    between atoms: _575  and  _576
REMARK  211  A    between atoms: _578  and  _580
REMARK  212  A    between atoms: _580  and  _581
REMARK  213  A    between atoms: _580  and  _583
REMARK  214  A    between atoms: _583  and  _584
REMARK  215  A    between atoms: _584  and  _585
REMARK  216  A    between atoms: _588  and  _590
REMARK  217  A    between atoms: _590  and  _591
REMARK  218  A    between atoms: _590  and  _593
REMARK  219  A    between atoms: _593  and  _594
REMARK  220  A    between atoms: _594  and  _595
REMARK  221  A    between atoms: _595  and  _596
REMARK                            x       y       z     vdW  Elec       q    Type
REMARK                         _______ _______ _______ _____ _____    ______ ____
ROOT
ATOM      1  C   ARG A   1       4.258   7.526   2.494  0.00  0.00    +0.238 C 
ATOM      2  N   TYR A   2       4.205   6.504   3.336  0.00  0.00    -0.298 N 
ATOM      3  H   TYR A   2       5.068   5.962   3.544  0.00  0.00    +0.150 HD
ATOM      4  O   ARG A   1       3.339   8.326   2.368  0.00  0.00    -0.274 OA
ENDROOT
BRANCH   1   5
ATOM      5  CA  ARG A   1       5.547   7.671   1.689  0.00  0.00    +0.145 C 
BRANCH   5   6
ATOM      6  N   ARG A   1       6.715   7.672   2.563  0.00  0.00    -0.238 NA
ATOM      7  H   ARG A   1       7.541   7.101   2.292  0.00  0.00    +0.142 HD
ENDBRANCH   5   6
BRANCH   5   8
ATOM      8  CB  ARG A   1       5.673   6.549   0.650  0.00  0.00    +0.030 C 
BRANCH   8   9
ATOM      9  CG  ARG A   1       4.552   6.486  -0.376  0.00  0.00    +0.045 C 
BRANCH   9  10
ATOM     10  CD  ARG A   1       4.670   5.245  -1.253  0.00  0.00    +0.174 C 
BRANCH  10  11
ATOM     11  NE  ARG A   1       3.398   4.869  -1.864  0.00  0.00    -0.265 N 
ATOM     12  HE  ARG A   1       2.964   3.970  -1.571  0.00  0.00    +0.259 HD
ATOM     13  CZ  ARG A   1       2.760   5.601  -2.769  0.00  0.00    +0.342 C 
ATOM     14  NH2 ARG A   1       3.276   6.751  -3.170  0.00  0.00    -0.292 N 
ATOM     15 HH21 ARG A   1       4.180   7.081  -2.776  0.00  0.00    +0.255 HD
ATOM     16 HH22 ARG A   1       2.777   7.326  -3.879  0.00  0.00    +0.255 HD
ATOM     17  NH1 ARG A   1       1.606   5.187  -3.270  0.00  0.00    -0.292 N 
ATOM     18 HH11 ARG A   1       1.196   4.285  -2.955  0.00  0.00    +0.255 HD
ATOM     19 HH12 ARG A   1       1.110   5.764  -3.979  0.00  0.00    +0.255 HD
ENDBRANCH  10  11
ENDBRANCH   9  10
ENDBRANCH   8   9
ENDBRANCH   5   8
ENDBRANCH   1   5
BRANCH   2  20
ATOM     20  CA  TYR A   2       2.950   6.133   3.972  0.00  0.00    +0.141 C 
BRANCH  20  21
ATOM     21  C   TYR A   2       2.667   6.914   5.257  0.00  0.00    +0.227 C 
ATOM     22  O   TYR A   2       1.515   7.112   5.621  0.00  0.00    -0.286 OA
ENDBRANCH  20  21
BRANCH  20  23
ATOM     23  CB  TYR A   2       2.881   4.618   4.185  0.00  0.00    +0.054 C 
BRANCH  23  24
ATOM     24  CG  TYR A   2       2.883   3.868   2.871  0.00  0.00    -0.020 A 
ATOM     25  CD2 TYR A   2       3.956   3.073   2.500  0.00  0.00    -0.001 A 
ATOM     26  CE2 TYR A   2       3.960   2.400   1.296  0.00  0.00    +0.036 A 
ATOM     27  CZ  TYR A   2       2.893   2.536   0.435  0.00  0.00    +0.134 A 
ATOM     28  CE1 TYR A   2       1.823   3.326   0.776  0.00  0.00    +0.036 A 
ATOM     29  CD1 TYR A   2       1.824   3.987   1.986  0.00  0.00    -0.001 A 
BRANCH  27  30
ATOM     30  OH  TYR A   2       2.884   1.875  -0.764  0.00  0.00    -0.506 OA
ATOM     31  HH  TYR A   2       2.048   2.087  -1.250  0.00  0.00    +0.292 HD
ENDBRANCH  27  30
ENDBRANCH  23  24
ENDBRANCH  20  23
ENDBRANCH   2  20
TORSDOF 11
REMARK  Name = ../refined-set-2016/4zb8/4zb8_pocket.pdb
REMARK  221 active torsions:
REMARK  status: ('A' for Active; 'I' for Inactive)
REMARK    1  A    between atoms: _1  and  _3
REMARK    2  A    between atoms: _3  and  _4
REMARK    3  A    between atoms: _3  and  _6
REMARK    4  A    between atoms: _6  and  _7
REMARK    5  A    between atoms: _12  and  _13
REMARK    6  A    between atoms: _15  and  _17
REMARK    7  A    between atoms: _17  and  _18
REMARK    8  A    between atoms: _17  and  _20
REMARK    9  A    between atoms: _20  and  _21
REMARK   10  A    between atoms: _24  and  _26
REMARK   11  A    between atoms: _26  and  _27
REMARK   12  A    between atoms: _26  and  _29
REMARK   13  A    between atoms: _29  and  _30
REMARK   14  A    between atoms: _35  and  _37
REMARK   15  A    between atoms: _37  and  _38
REMARK   16  A    between atoms: _40  and  _42
REMARK   17  A    between atoms: _42  and  _43
REMARK   18  A    between atoms: _46  and  _47
REMARK   19  A    between atoms: _52  and  _54
REMARK   20  A    between atoms: _54  and  _55
REMARK   21  A    between atoms: _54  and  _57
REMARK   22  A    between atoms: _57  and  _58
REMARK   23  A    between atoms: _63  and  _65
REMARK   24  A    between atoms: _65  and  _66
REMARK   25  A    between atoms: _68  and  _70
REMARK   26  A    between atoms: _70  and  _71
REMARK   27  A    between atoms: _70  and  _73
REMARK   28  A    between atoms: _73  and  _74
REMARK   29  A    between atoms: _84  and  _86
REMARK   30  A    between atoms: _86  and  _87
REMARK   31  A    between atoms: _86  and  _89
REMARK   32  A    between atoms: _89  and  _90
REMARK   33  A    between atoms: _90  and  _91
REMARK   34  A    between atoms: _91  and  _92
REMARK   35  A    between atoms: _92  and  _93
REMARK   36  A    between atoms: _97  and  _99
REMARK   37  A    between atoms: _99  and  _100
REMARK   38  A    between atoms: _99  and  _102
REMARK   39  A    between atoms: _105  and  _107
REMARK   40  A    between atoms: _107  and  _108
REMARK   41  A    between atoms: _107  and  _110
REMARK   42  A    between atoms: _110  and  _111
REMARK   43  A    between atoms: _114  and  _116
REMARK   44  A    between atoms: _116  and  _117
REMARK   45  A    between atoms: _116  and  _119
REMARK   46  A    between atoms: _119  and  _120
REMARK   47  A    between atoms: _126  and  _128
REMARK   48  A    between atoms: _128  and  _129
REMARK   49  A    between atoms: _128  and  _131
REMARK   50  A    between atoms: _131  and  _132
REMARK   51  A    between atoms: _137  and  _139
REMARK   52  A    between atoms: _139  and  _140
REMARK   53  A    between atoms: _139  and  _142
REMARK   54  A    between atoms: _142  and  _143
REMARK   55  A    between atoms: _143  and  _144
REMARK   56  A    between atoms: _144  and  _145
REMARK   57  A    between atoms: _145  and  _146
REMARK   58  A    between atoms: _150  and  _152
REMARK   59  A    between atoms: _152  and  _153
REMARK   60  A    between atoms: _152  and  _155
REMARK   61  A    between atoms: _155  and  _156
REMARK   62  A    between atoms: _161  and  _162
REMARK   63  A    between atoms: _164  and  _166
REMARK   64  A    between atoms: _166  and  _167
REMARK   65  A    between atoms: _166  and  _169
REMARK   66  A    between atoms: _169  and  _170
REMARK   67  A    between atoms: _175  and  _177
REMARK   68  A    between atoms: _177  and  _178
REMARK   69  A    between atoms: _177  and  _180
REMARK   70  A    between atoms: _180  and  _181
REMARK   71  A    between atoms: _186  and  _188
REMARK   72  A    between atoms: _188  and  _189
REMARK   73  A    between atoms: _191  and  _193
REMARK   74  A    between atoms: _193  and  _194
REMARK   75  A    between atoms: _193  and  _196
REMARK   76  A    between atoms: _196  and  _197
REMARK   77  A    between atoms: _197  and  _198
REMARK   78  A    between atoms: _198  and  _199
REMARK   79  A    between atoms: _208  and  _210
REMARK   80  A    between atoms: _210  and  _211
REMARK   81  A    between atoms: _210  and  _213
REMARK   82  A    between atoms: _213  and  _214
REMARK   83  A    between atoms: _218  and  _219
REMARK   84  A    between atoms: _224  and  _226
REMARK   85  A    between atoms: _226  and  _227
REMARK   86  A    between atoms: _230  and  _232
REMARK   87  A    between atoms: _232  and  _233
REMARK   88  A    between atoms: _232  and  _235
REMARK   89  A    between atoms: _235  and  _236
REMARK   90  A    between atoms: _246  and  _248
REMARK   91  A    between atoms: _248  and  _249
REMARK   92  A    between atoms: _248  and  _251
REMARK   93  A    between atoms: _251  and  _252
REMARK   94  A    between atoms: _252  and  _253
REMARK   95  A    between atoms: _256  and  _258
REMARK   96  A    between atoms: _258  and  _259
REMARK   97  A    between atoms: _258  and  _261
REMARK   98  A    between atoms: _261  and  _262
REMARK   99  A    between atoms: _264  and  _266
REMARK  100  A    between atoms: _266  and  _267
REMARK  101  A    between atoms: _266  and  _269
REMARK  102  A    between atoms: _269  and  _270
REMARK  103  A    between atoms: _275  and  _277
REMARK  104  A    between atoms: _277  and  _278
REMARK  105  A    between atoms: _281  and  _283
REMARK  106  A    between atoms: _283  and  _284
REMARK  107  A    between atoms: _283  and  _286
REMARK  108  A    between atoms: _286  and  _287
REMARK  109  A    between atoms: _290  and  _292
REMARK  110  A    between atoms: _292  and  _293
REMARK  111  A    between atoms: _292  and  _295
REMARK  112  A    between atoms: _295  and  _296
REMARK  113  A    between atoms: _299  and  _301
REMARK  114  A    between atoms: _301  and  _302
REMARK  115  A    between atoms: _301  and  _304
REMARK  116  A    between atoms: _304  and  _305
REMARK  117  A    between atoms: _305  and  _306
REMARK  118  A    between atoms: _311  and  _313
REMARK  119  A    between atoms: _313  and  _314
REMARK  120  A    between atoms: _317  and  _319
REMARK  121  A    between atoms: _319  and  _320
REMARK  122  A    between atoms: _319  and  _322
REMARK  123  A    between atoms: _322  and  _323
REMARK  124  A    between atoms: _325  and  _327
REMARK  125  A    between atoms: _327  and  _328
REMARK  126  A    between atoms: _330  and  _332
REMARK  127  A    between atoms: _332  and  _333
REMARK  128  A    between atoms: _332  and  _335
REMARK  129  A    between atoms: _335  and  _336
REMARK  130  A    between atoms: _336  and  _337
REMARK  131  A    between atoms: _342  and  _344
REMARK  132  A    between atoms: _344  and  _345
REMARK  133  A    between atoms: _348  and  _349
REMARK  134  A    between atoms: _354  and  _356
REMARK  135  A    between atoms: _356  and  _357
REMARK  136  A    between atoms: _356  and  _359
REMARK  137  A    between atoms: _359  and  _360
REMARK  138  A    between atoms: _365  and  _366
REMARK  139  A    between atoms: _368  and  _370
REMARK  140  A    between atoms: _370  and  _371
REMARK  141  A    between atoms: _370  and  _373
REMARK  142  A    between atoms: _373  and  _374
REMARK  143  A    between atoms: _379  and  _380
REMARK  144  A    between atoms: _382  and  _384
REMARK  145  A    between atoms: _384  and  _385
REMARK  146  A    between atoms: _387  and  _389
REMARK  147  A    between atoms: _389  and  _390
REMARK  148  A    between atoms: _389  and  _392
REMARK  149  A    between atoms: _392  and  _393
REMARK  150  A    between atoms: _393  and  _394
REMARK  151  A    between atoms: _399  and  _401
REMARK  152  A    between atoms: _401  and  _402
REMARK  153  A    between atoms: _405  and  _407
REMARK  154  A    between atoms: _407  and  _408
REMARK  155  A    between atoms: _411  and  _413
REMARK  156  A    between atoms: _413  and  _414
REMARK  157  A    between atoms: _413  and  _416
REMARK  158  A    between atoms: _416  and  _417
REMARK  159  A    between atoms: _427  and  _429
REMARK  160  A    between atoms: _429  and  _430
REMARK  161  A    between atoms: _429  and  _432
REMARK  162  A    between atoms: _432  and  _433
REMARK  163  A    between atoms: _439  and  _441
REMARK  164  A    between atoms: _441  and  _442
REMARK  165  A    between atoms: _441  and  _444
REMARK  166  A    between atoms: _444  and  _445
REMARK  167  A    between atoms: _450  and  _451
REMARK  168  A    between atoms: _453  and  _455
REMARK  169  A    between atoms: _455  and  _456
REMARK  170  A    between atoms: _455  and  _458
REMARK  171  A    between atoms: _458  and  _459
REMARK  172  A    between atoms: _469  and  _471
REMARK  173  A    between atoms: _471  and  _472
REMARK  174  A    between atoms: _471  and  _474
REMARK  175  A    between atoms: _474  and  _475
REMARK  176  A    between atoms: _480  and  _481
REMARK  177  A    between atoms: _483  and  _485
REMARK  178  A    between atoms: _485  and  _486
REMARK  179  A    between atoms: _485  and  _488
REMARK  180  A    between atoms: _488  and  _489
REMARK  181  A    between atoms: _495  and  _497
REMARK  182  A    between atoms: _497  and  _498
REMARK  183  A    between atoms: _501  and  _503
REMARK  184  A    between atoms: _503  and  _504
REMARK  185  A    between atoms: _503  and  _506
REMARK  186  A    between atoms: _506  and  _507
REMARK  187  A    between atoms: _509  and  _511
REMARK  188  A    between atoms: _511  and  _512
REMARK  189  A    between atoms: _514  and  _516
REMARK  190  A    between atoms: _516  and  _517
REMARK  191  A    between atoms: _516  and  _519
REMARK  192  A    between atoms: _519  and  _520
REMARK  193  A    between atoms: _520  and  _521
REMARK  194  A    between atoms: _527  and  _528
REMARK  195  A    between atoms: _533  and  _535
REMARK  196  A    between atoms: _535  and  _536
REMARK  197  A    between atoms: _535  and  _538
REMARK  198  A    between atoms: _538  and  _539
REMARK  199  A    between atoms: _544  and  _545
REMARK  200  A    between atoms: _547  and  _549
REMARK  201  A    between atoms: _549  and  _550
REMARK  202  A    between atoms: _549  and  _552
REMARK  203  A    between atoms: _552  and  _553
REMARK  204  A    between atoms: _553  and  _554
REMARK  205  A    between atoms: _554  and  _555
REMARK  206  A    between atoms: _564  and  _566
REMARK  207  A    between atoms: _566  and  _567
REMARK  208  A    between atoms: _566  and  _569
REMARK  209  A    between atoms: _569  and  _570
REMARK  210  A    between atoms: _575  and  _576
REMARK  211  A    between atoms: _578  and  _580
REMARK  212  A    between atoms: _580  and  _581
REMARK  213  A    between atoms: _580  and  _583
REMARK  214  A    between atoms: _583  and  _584
REMARK  215  A    between atoms: _584  and  _585
REMARK  216  A    between atoms: _588  and  _590
REMARK  217  A    between atoms: _590  and  _591
REMARK  218  A    between atoms: _590  and  _593
REMARK  219  A    between atoms: _593  and  _594
REMARK  220  A    between atoms: _594  and  _595
REMARK  221  A    between atoms: _595  and  _596
REMARK                            x       y       z     vdW  Elec       q    Type
REMARK                         _______ _______ _______ _____ _____    ______ ____
ROOT
ATOM      1  CA  GLU A   1      -0.292   9.579   3.263  0.00  0.00    +0.134 C 
ENDROOT
BRANCH   1   2
ATOM      2  N   GLU A   1       1.067   9.857   3.700  0.00  0.00    -0.239 NA
ATOM      3  H   GLU A   1       1.786   9.106   3.674  0.00  0.00    +0.142 HD
ENDBRANCH   1   2
BRANCH   1   4
ATOM      4  C   GLU A   1      -1.275   9.595   4.436  0.00  0.00    +0.224 C 
ATOM      5  O   GLU A   1      -2.389  10.088   4.310  0.00  0.00    -0.287 OA
ENDBRANCH   1   4
BRANCH   1   6
ATOM      6  CB  GLU A   1      -0.373   8.252   2.513  0.00  0.00    +0.037 C 
BRANCH   6   7
ATOM      7  CG  GLU A   1      -1.762   7.941   1.973  0.00  0.00    +0.116 C 
BRANCH   7   8
ATOM      8  CD  GLU A   1      -2.233   8.937   0.926  0.00  0.00    +0.365 C 
ATOM      9  OE2 GLU A   1      -1.449   9.823   0.546  0.00  0.00    -0.246 OA
ATOM     10  OE1 GLU A   1      -3.388   8.828   0.480  0.00  0.00    -0.246 OA
ENDBRANCH   7   8
ENDBRANCH   6   7
ENDBRANCH   1   6
TORSDOF 5
REMARK  Name = ../refined-set-2016/4zb8/4zb8_pocket.pdb
REMARK  221 active torsions:
REMARK  status: ('A' for Active; 'I' for Inactive)
REMARK    1  A    between atoms: _1  and  _3
REMARK    2  A    between atoms: _3  and  _4
REMARK    3  A    between atoms: _3  and  _6
REMARK    4  A    between atoms: _6  and  _7
REMARK    5  A    between atoms: _12  and  _13
REMARK    6  A    between atoms: _15  and  _17
REMARK    7  A    between atoms: _17  and  _18
REMARK    8  A    between atoms: _17  and  _20
REMARK    9  A    between atoms: _20  and  _21
REMARK   10  A    between atoms: _24  and  _26
REMARK   11  A    between atoms: _26  and  _27
REMARK   12  A    between atoms: _26  and  _29
REMARK   13  A    between atoms: _29  and  _30
REMARK   14  A    between atoms: _35  and  _37
REMARK   15  A    between atoms: _37  and  _38
REMARK   16  A    between atoms: _40  and  _42
REMARK   17  A    between atoms: _42  and  _43
REMARK   18  A    between atoms: _46  and  _47
REMARK   19  A    between atoms: _52  and  _54
REMARK   20  A    between atoms: _54  and  _55
REMARK   21  A    between atoms: _54  and  _57
REMARK   22  A    between atoms: _57  and  _58
REMARK   23  A    between atoms: _63  and  _65
REMARK   24  A    between atoms: _65  and  _66
REMARK   25  A    between atoms: _68  and  _70
REMARK   26  A    between atoms: _70  and  _71
REMARK   27  A    between atoms: _70  and  _73
REMARK   28  A    between atoms: _73  and  _74
REMARK   29  A    between atoms: _84  and  _86
REMARK   30  A    between atoms: _86  and  _87
REMARK   31  A    between atoms: _86  and  _89
REMARK   32  A    between atoms: _89  and  _90
REMARK   33  A    between atoms: _90  and  _91
REMARK   34  A    between atoms: _91  and  _92
REMARK   35  A    between atoms: _92  and  _93
REMARK   36  A    between atoms: _97  and  _99
REMARK   37  A    between atoms: _99  and  _100
REMARK   38  A    between atoms: _99  and  _102
REMARK   39  A    between atoms: _105  and  _107
REMARK   40  A    between atoms: _107  and  _108
REMARK   41  A    between atoms: _107  and  _110
REMARK   42  A    between atoms: _110  and  _111
REMARK   43  A    between atoms: _114  and  _116
REMARK   44  A    between atoms: _116  and  _117
REMARK   45  A    between atoms: _116  and  _119
REMARK   46  A    between atoms: _119  and  _120
REMARK   47  A    between atoms: _126  and  _128
REMARK   48  A    between atoms: _128  and  _129
REMARK   49  A    between atoms: _128  and  _131
REMARK   50  A    between atoms: _131  and  _132
REMARK   51  A    between atoms: _137  and  _139
REMARK   52  A    between atoms: _139  and  _140
REMARK   53  A    between atoms: _139  and  _142
REMARK   54  A    between atoms: _142  and  _143
REMARK   55  A    between atoms: _143  and  _144
REMARK   56  A    between atoms: _144  and  _145
REMARK   57  A    between atoms: _145  and  _146
REMARK   58  A    between atoms: _150  and  _152
REMARK   59  A    between atoms: _152  and  _153
REMARK   60  A    between atoms: _152  and  _155
REMARK   61  A    between atoms: _155  and  _156
REMARK   62  A    between atoms: _161  and  _162
REMARK   63  A    between atoms: _164  and  _166
REMARK   64  A    between atoms: _166  and  _167
REMARK   65  A    between atoms: _166  and  _169
REMARK   66  A    between atoms: _169  and  _170
REMARK   67  A    between atoms: _175  and  _177
REMARK   68  A    between atoms: _177  and  _178
REMARK   69  A    between atoms: _177  and  _180
REMARK   70  A    between atoms: _180  and  _181
REMARK   71  A    between atoms: _186  and  _188
REMARK   72  A    between atoms: _188  and  _189
REMARK   73  A    between atoms: _191  and  _193
REMARK   74  A    between atoms: _193  and  _194
REMARK   75  A    between atoms: _193  and  _196
REMARK   76  A    between atoms: _196  and  _197
REMARK   77  A    between atoms: _197  and  _198
REMARK   78  A    between atoms: _198  and  _199
REMARK   79  A    between atoms: _208  and  _210
REMARK   80  A    between atoms: _210  and  _211
REMARK   81  A    between atoms: _210  and  _213
REMARK   82  A    between atoms: _213  and  _214
REMARK   83  A    between atoms: _218  and  _219
REMARK   84  A    between atoms: _224  and  _226
REMARK   85  A    between atoms: _226  and  _227
REMARK   86  A    between atoms: _230  and  _232
REMARK   87  A    between atoms: _232  and  _233
REMARK   88  A    between atoms: _232  and  _235
REMARK   89  A    between atoms: _235  and  _236
REMARK   90  A    between atoms: _246  and  _248
REMARK   91  A    between atoms: _248  and  _249
REMARK   92  A    between atoms: _248  and  _251
REMARK   93  A    between atoms: _251  and  _252
REMARK   94  A    between atoms: _252  and  _253
REMARK   95  A    between atoms: _256  and  _258
REMARK   96  A    between atoms: _258  and  _259
REMARK   97  A    between atoms: _258  and  _261
REMARK   98  A    between atoms: _261  and  _262
REMARK   99  A    between atoms: _264  and  _266
REMARK  100  A    between atoms: _266  and  _267
REMARK  101  A    between atoms: _266  and  _269
REMARK  102  A    between atoms: _269  and  _270
REMARK  103  A    between atoms: _275  and  _277
REMARK  104  A    between atoms: _277  and  _278
REMARK  105  A    between atoms: _281  and  _283
REMARK  106  A    between atoms: _283  and  _284
REMARK  107  A    between atoms: _283  and  _286
REMARK  108  A    between atoms: _286  and  _287
REMARK  109  A    between atoms: _290  and  _292
REMARK  110  A    between atoms: _292  and  _293
REMARK  111  A    between atoms: _292  and  _295
REMARK  112  A    between atoms: _295  and  _296
REMARK  113  A    between atoms: _299  and  _301
REMARK  114  A    between atoms: _301  and  _302
REMARK  115  A    between atoms: _301  and  _304
REMARK  116  A    between atoms: _304  and  _305
REMARK  117  A    between atoms: _305  and  _306
REMARK  118  A    between atoms: _311  and  _313
REMARK  119  A    between atoms: _313  and  _314
REMARK  120  A    between atoms: _317  and  _319
REMARK  121  A    between atoms: _319  and  _320
REMARK  122  A    between atoms: _319  and  _322
REMARK  123  A    between atoms: _322  and  _323
REMARK  124  A    between atoms: _325  and  _327
REMARK  125  A    between atoms: _327  and  _328
REMARK  126  A    between atoms: _330  and  _332
REMARK  127  A    between atoms: _332  and  _333
REMARK  128  A    between atoms: _332  and  _335
REMARK  129  A    between atoms: _335  and  _336
REMARK  130  A    between atoms: _336  and  _337
REMARK  131  A    between atoms: _342  and  _344
REMARK  132  A    between atoms: _344  and  _345
REMARK  133  A    between atoms: _348  and  _349
REMARK  134  A    between atoms: _354  and  _356
REMARK  135  A    between atoms: _356  and  _357
REMARK  136  A    between atoms: _356  and  _359
REMARK  137  A    between atoms: _359  and  _360
REMARK  138  A    between atoms: _365  and  _366
REMARK  139  A    between atoms: _368  and  _370
REMARK  140  A    between atoms: _370  and  _371
REMARK  141  A    between atoms: _370  and  _373
REMARK  142  A    between atoms: _373  and  _374
REMARK  143  A    between atoms: _379  and  _380
REMARK  144  A    between atoms: _382  and  _384
REMARK  145  A    between atoms: _384  and  _385
REMARK  146  A    between atoms: _387  and  _389
REMARK  147  A    between atoms: _389  and  _390
REMARK  148  A    between atoms: _389  and  _392
REMARK  149  A    between atoms: _392  and  _393
REMARK  150  A    between atoms: _393  and  _394
REMARK  151  A    between atoms: _399  and  _401
REMARK  152  A    between atoms: _401  and  _402
REMARK  153  A    between atoms: _405  and  _407
REMARK  154  A    between atoms: _407  and  _408
REMARK  155  A    between atoms: _411  and  _413
REMARK  156  A    between atoms: _413  and  _414
REMARK  157  A    between atoms: _413  and  _416
REMARK  158  A    between atoms: _416  and  _417
REMARK  159  A    between atoms: _427  and  _429
REMARK  160  A    between atoms: _429  and  _430
REMARK  161  A    between atoms: _429  and  _432
REMARK  162  A    between atoms: _432  and  _433
REMARK  163  A    between atoms: _439  and  _441
REMARK  164  A    between atoms: _441  and  _442
REMARK  165  A    between atoms: _441  and  _444
REMARK  166  A    between atoms: _444  and  _445
REMARK  167  A    between atoms: _450  and  _451
REMARK  168  A    between atoms: _453  and  _455
REMARK  169  A    between atoms: _455  and  _456
REMARK  170  A    between atoms: _455  and  _458
REMARK  171  A    between atoms: _458  and  _459
REMARK  172  A    between atoms: _469  and  _471
REMARK  173  A    between atoms: _471  and  _472
REMARK  174  A    between atoms: _471  and  _474
REMARK  175  A    between atoms: _474  and  _475
REMARK  176  A    between atoms: _480  and  _481
REMARK  177  A    between atoms: _483  and  _485
REMARK  178  A    between atoms: _485  and  _486
REMARK  179  A    between atoms: _485  and  _488
REMARK  180  A    between atoms: _488  and  _489
REMARK  181  A    between atoms: _495  and  _497
REMARK  182  A    between atoms: _497  and  _498
REMARK  183  A    between atoms: _501  and  _503
REMARK  184  A    between atoms: _503  and  _504
REMARK  185  A    between atoms: _503  and  _506
REMARK  186  A    between atoms: _506  and  _507
REMARK  187  A    between atoms: _509  and  _511
REMARK  188  A    between atoms: _511  and  _512
REMARK  189  A    between atoms: _514  and  _516
REMARK  190  A    between atoms: _516  and  _517
REMARK  191  A    between atoms: _516  and  _519
REMARK  192  A    between atoms: _519  and  _520
REMARK  193  A    between atoms: _520  and  _521
REMARK  194  A    between atoms: _527  and  _528
REMARK  195  A    between atoms: _533  and  _535
REMARK  196  A    between atoms: _535  and  _536
REMARK  197  A    between atoms: _535  and  _538
REMARK  198  A    between atoms: _538  and  _539
REMARK  199  A    between atoms: _544  and  _545
REMARK  200  A    between atoms: _547  and  _549
REMARK  201  A    between atoms: _549  and  _550
REMARK  202  A    between atoms: _549  and  _552
REMARK  203  A    between atoms: _552  and  _553
REMARK  204  A    between atoms: _553  and  _554
REMARK  205  A    between atoms: _554  and  _555
REMARK  206  A    between atoms: _564  and  _566
REMARK  207  A    between atoms: _566  and  _567
REMARK  208  A    between atoms: _566  and  _569
REMARK  209  A    between atoms: _569  and  _570
REMARK  210  A    between atoms: _575  and  _576
REMARK  211  A    between atoms: _578  and  _580
REMARK  212  A    between atoms: _580  and  _581
REMARK  213  A    between atoms: _580  and  _583
REMARK  214  A    between atoms: _583  and  _584
REMARK  215  A    between atoms: _584  and  _585
REMARK  216  A    between atoms: _588  and  _590
REMARK  217  A    between atoms: _590  and  _591
REMARK  218  A    between atoms: _590  and  _593
REMARK  219  A    between atoms: _593  and  _594
REMARK  220  A    between atoms: _594  and  _595
REMARK  221  A    between atoms: _595  and  _596
REMARK                            x       y       z     vdW  Elec       q    Type
REMARK                         _______ _______ _______ _____ _____    ______ ____
ROOT
ATOM      1  NE  ARG A   1      -3.843  11.603   0.075  0.00  0.00    -0.265 N 
ATOM      2  HE  ARG A   1      -3.396  10.683   0.263  0.00  0.00    +0.259 HD
ATOM      3  CZ  ARG A   1      -5.154  11.625  -0.117  0.00  0.00    +0.342 C 
ATOM      4  NH2 ARG A   1      -5.850  10.499  -0.057  0.00  0.00    -0.292 N 
ATOM      5 HH21 ARG A   1      -5.367   9.599   0.141  0.00  0.00    +0.255 HD
ATOM      6 HH22 ARG A   1      -6.879  10.515  -0.208  0.00  0.00    +0.255 HD
ATOM      7  NH1 ARG A   1      -5.769  12.769  -0.375  0.00  0.00    -0.292 N 
ATOM      8 HH11 ARG A   1      -5.223  13.653  -0.427  0.00  0.00    +0.255 HD
ATOM      9 HH12 ARG A   1      -6.798  12.784  -0.525  0.00  0.00    +0.255 HD
ENDROOT
BRANCH   1  10
ATOM     10  CD  ARG A   1      -2.984  12.781   0.040  0.00  0.00    +0.174 C 
BRANCH  10  11
ATOM     11  CG  ARG A   1      -3.134  13.628   1.291  0.00  0.00    +0.045 C 
BRANCH  11  12
ATOM     12  CB  ARG A   1      -2.477  12.967   2.494  0.00  0.00    +0.029 C 
BRANCH  12  13
ATOM     13  CA  ARG A   1      -2.881  13.571   3.840  0.00  0.00    +0.133 C 
BRANCH  13  14
ATOM     14  N   ARG A   1      -1.963  13.143   4.892  0.00  0.00    -0.239 NA
ATOM     15  H   ARG A   1      -1.157  12.534   4.645  0.00  0.00    +0.142 HD
ENDBRANCH  13  14
BRANCH  13  16
ATOM     16  C   ARG A   1      -4.328  13.198   4.185  0.00  0.00    +0.224 C 
ATOM     17  O   ARG A   1      -5.210  14.050   4.217  0.00  0.00    -0.287 OA
ENDBRANCH  13  16
ENDBRANCH  12  13
ENDBRANCH  11  12
ENDBRANCH  10  11
ENDBRANCH   1  10
TORSDOF 6
REMARK  Name = ../refined-set-2016/4zb8/4zb8_pocket.pdb
REMARK  221 active torsions:
REMARK  status: ('A' for Active; 'I' for Inactive)
REMARK    1  A    between atoms: _1  and  _3
REMARK    2  A    between atoms: _3  and  _4
REMARK    3  A    between atoms: _3  and  _6
REMARK    4  A    between atoms: _6  and  _7
REMARK    5  A    between atoms: _12  and  _13
REMARK    6  A    between atoms: _15  and  _17
REMARK    7  A    between atoms: _17  and  _18
REMARK    8  A    between atoms: _17  and  _20
REMARK    9  A    between atoms: _20  and  _21
REMARK   10  A    between atoms: _24  and  _26
REMARK   11  A    between atoms: _26  and  _27
REMARK   12  A    between atoms: _26  and  _29
REMARK   13  A    between atoms: _29  and  _30
REMARK   14  A    between atoms: _35  and  _37
REMARK   15  A    between atoms: _37  and  _38
REMARK   16  A    between atoms: _40  and  _42
REMARK   17  A    between atoms: _42  and  _43
REMARK   18  A    between atoms: _46  and  _47
REMARK   19  A    between atoms: _52  and  _54
REMARK   20  A    between atoms: _54  and  _55
REMARK   21  A    between atoms: _54  and  _57
REMARK   22  A    between atoms: _57  and  _58
REMARK   23  A    between atoms: _63  and  _65
REMARK   24  A    between atoms: _65  and  _66
REMARK   25  A    between atoms: _68  and  _70
REMARK   26  A    between atoms: _70  and  _71
REMARK   27  A    between atoms: _70  and  _73
REMARK   28  A    between atoms: _73  and  _74
REMARK   29  A    between atoms: _84  and  _86
REMARK   30  A    between atoms: _86  and  _87
REMARK   31  A    between atoms: _86  and  _89
REMARK   32  A    between atoms: _89  and  _90
REMARK   33  A    between atoms: _90  and  _91
REMARK   34  A    between atoms: _91  and  _92
REMARK   35  A    between atoms: _92  and  _93
REMARK   36  A    between atoms: _97  and  _99
REMARK   37  A    between atoms: _99  and  _100
REMARK   38  A    between atoms: _99  and  _102
REMARK   39  A    between atoms: _105  and  _107
REMARK   40  A    between atoms: _107  and  _108
REMARK   41  A    between atoms: _107  and  _110
REMARK   42  A    between atoms: _110  and  _111
REMARK   43  A    between atoms: _114  and  _116
REMARK   44  A    between atoms: _116  and  _117
REMARK   45  A    between atoms: _116  and  _119
REMARK   46  A    between atoms: _119  and  _120
REMARK   47  A    between atoms: _126  and  _128
REMARK   48  A    between atoms: _128  and  _129
REMARK   49  A    between atoms: _128  and  _131
REMARK   50  A    between atoms: _131  and  _132
REMARK   51  A    between atoms: _137  and  _139
REMARK   52  A    between atoms: _139  and  _140
REMARK   53  A    between atoms: _139  and  _142
REMARK   54  A    between atoms: _142  and  _143
REMARK   55  A    between atoms: _143  and  _144
REMARK   56  A    between atoms: _144  and  _145
REMARK   57  A    between atoms: _145  and  _146
REMARK   58  A    between atoms: _150  and  _152
REMARK   59  A    between atoms: _152  and  _153
REMARK   60  A    between atoms: _152  and  _155
REMARK   61  A    between atoms: _155  and  _156
REMARK   62  A    between atoms: _161  and  _162
REMARK   63  A    between atoms: _164  and  _166
REMARK   64  A    between atoms: _166  and  _167
REMARK   65  A    between atoms: _166  and  _169
REMARK   66  A    between atoms: _169  and  _170
REMARK   67  A    between atoms: _175  and  _177
REMARK   68  A    between atoms: _177  and  _178
REMARK   69  A    between atoms: _177  and  _180
REMARK   70  A    between atoms: _180  and  _181
REMARK   71  A    between atoms: _186  and  _188
REMARK   72  A    between atoms: _188  and  _189
REMARK   73  A    between atoms: _191  and  _193
REMARK   74  A    between atoms: _193  and  _194
REMARK   75  A    between atoms: _193  and  _196
REMARK   76  A    between atoms: _196  and  _197
REMARK   77  A    between atoms: _197  and  _198
REMARK   78  A    between atoms: _198  and  _199
REMARK   79  A    between atoms: _208  and  _210
REMARK   80  A    between atoms: _210  and  _211
REMARK   81  A    between atoms: _210  and  _213
REMARK   82  A    between atoms: _213  and  _214
REMARK   83  A    between atoms: _218  and  _219
REMARK   84  A    between atoms: _224  and  _226
REMARK   85  A    between atoms: _226  and  _227
REMARK   86  A    between atoms: _230  and  _232
REMARK   87  A    between atoms: _232  and  _233
REMARK   88  A    between atoms: _232  and  _235
REMARK   89  A    between atoms: _235  and  _236
REMARK   90  A    between atoms: _246  and  _248
REMARK   91  A    between atoms: _248  and  _249
REMARK   92  A    between atoms: _248  and  _251
REMARK   93  A    between atoms: _251  and  _252
REMARK   94  A    between atoms: _252  and  _253
REMARK   95  A    between atoms: _256  and  _258
REMARK   96  A    between atoms: _258  and  _259
REMARK   97  A    between atoms: _258  and  _261
REMARK   98  A    between atoms: _261  and  _262
REMARK   99  A    between atoms: _264  and  _266
REMARK  100  A    between atoms: _266  and  _267
REMARK  101  A    between atoms: _266  and  _269
REMARK  102  A    between atoms: _269  and  _270
REMARK  103  A    between atoms: _275  and  _277
REMARK  104  A    between atoms: _277  and  _278
REMARK  105  A    between atoms: _281  and  _283
REMARK  106  A    between atoms: _283  and  _284
REMARK  107  A    between atoms: _283  and  _286
REMARK  108  A    between atoms: _286  and  _287
REMARK  109  A    between atoms: _290  and  _292
REMARK  110  A    between atoms: _292  and  _293
REMARK  111  A    between atoms: _292  and  _295
REMARK  112  A    between atoms: _295  and  _296
REMARK  113  A    between atoms: _299  and  _301
REMARK  114  A    between atoms: _301  and  _302
REMARK  115  A    between atoms: _301  and  _304
REMARK  116  A    between atoms: _304  and  _305
REMARK  117  A    between atoms: _305  and  _306
REMARK  118  A    between atoms: _311  and  _313
REMARK  119  A    between atoms: _313  and  _314
REMARK  120  A    between atoms: _317  and  _319
REMARK  121  A    between atoms: _319  and  _320
REMARK  122  A    between atoms: _319  and  _322
REMARK  123  A    between atoms: _322  and  _323
REMARK  124  A    between atoms: _325  and  _327
REMARK  125  A    between atoms: _327  and  _328
REMARK  126  A    between atoms: _330  and  _332
REMARK  127  A    between atoms: _332  and  _333
REMARK  128  A    between atoms: _332  and  _335
REMARK  129  A    between atoms: _335  and  _336
REMARK  130  A    between atoms: _336  and  _337
REMARK  131  A    between atoms: _342  and  _344
REMARK  132  A    between atoms: _344  and  _345
REMARK  133  A    between atoms: _348  and  _349
REMARK  134  A    between atoms: _354  and  _356
REMARK  135  A    between atoms: _356  and  _357
REMARK  136  A    between atoms: _356  and  _359
REMARK  137  A    between atoms: _359  and  _360
REMARK  138  A    between atoms: _365  and  _366
REMARK  139  A    between atoms: _368  and  _370
REMARK  140  A    between atoms: _370  and  _371
REMARK  141  A    between atoms: _370  and  _373
REMARK  142  A    between atoms: _373  and  _374
REMARK  143  A    between atoms: _379  and  _380
REMARK  144  A    between atoms: _382  and  _384
REMARK  145  A    between atoms: _384  and  _385
REMARK  146  A    between atoms: _387  and  _389
REMARK  147  A    between atoms: _389  and  _390
REMARK  148  A    between atoms: _389  and  _392
REMARK  149  A    between atoms: _392  and  _393
REMARK  150  A    between atoms: _393  and  _394
REMARK  151  A    between atoms: _399  and  _401
REMARK  152  A    between atoms: _401  and  _402
REMARK  153  A    between atoms: _405  and  _407
REMARK  154  A    between atoms: _407  and  _408
REMARK  155  A    between atoms: _411  and  _413
REMARK  156  A    between atoms: _413  and  _414
REMARK  157  A    between atoms: _413  and  _416
REMARK  158  A    between atoms: _416  and  _417
REMARK  159  A    between atoms: _427  and  _429
REMARK  160  A    between atoms: _429  and  _430
REMARK  161  A    between atoms: _429  and  _432
REMARK  162  A    between atoms: _432  and  _433
REMARK  163  A    between atoms: _439  and  _441
REMARK  164  A    between atoms: _441  and  _442
REMARK  165  A    between atoms: _441  and  _444
REMARK  166  A    between atoms: _444  and  _445
REMARK  167  A    between atoms: _450  and  _451
REMARK  168  A    between atoms: _453  and  _455
REMARK  169  A    between atoms: _455  and  _456
REMARK  170  A    between atoms: _455  and  _458
REMARK  171  A    between atoms: _458  and  _459
REMARK  172  A    between atoms: _469  and  _471
REMARK  173  A    between atoms: _471  and  _472
REMARK  174  A    between atoms: _471  and  _474
REMARK  175  A    between atoms: _474  and  _475
REMARK  176  A    between atoms: _480  and  _481
REMARK  177  A    between atoms: _483  and  _485
REMARK  178  A    between atoms: _485  and  _486
REMARK  179  A    between atoms: _485  and  _488
REMARK  180  A    between atoms: _488  and  _489
REMARK  181  A    between atoms: _495  and  _497
REMARK  182  A    between atoms: _497  and  _498
REMARK  183  A    between atoms: _501  and  _503
REMARK  184  A    between atoms: _503  and  _504
REMARK  185  A    between atoms: _503  and  _506
REMARK  186  A    between atoms: _506  and  _507
REMARK  187  A    between atoms: _509  and  _511
REMARK  188  A    between atoms: _511  and  _512
REMARK  189  A    between atoms: _514  and  _516
REMARK  190  A    between atoms: _516  and  _517
REMARK  191  A    between atoms: _516  and  _519
REMARK  192  A    between atoms: _519  and  _520
REMARK  193  A    between atoms: _520  and  _521
REMARK  194  A    between atoms: _527  and  _528
REMARK  195  A    between atoms: _533  and  _535
REMARK  196  A    between atoms: _535  and  _536
REMARK  197  A    between atoms: _535  and  _538
REMARK  198  A    between atoms: _538  and  _539
REMARK  199  A    between atoms: _544  and  _545
REMARK  200  A    between atoms: _547  and  _549
REMARK  201  A    between atoms: _549  and  _550
REMARK  202  A    between atoms: _549  and  _552
REMARK  203  A    between atoms: _552  and  _553
REMARK  204  A    between atoms: _553  and  _554
REMARK  205  A    between atoms: _554  and  _555
REMARK  206  A    between atoms: _564  and  _566
REMARK  207  A    between atoms: _566  and  _567
REMARK  208  A    between atoms: _566  and  _569
REMARK  209  A    between atoms: _569  and  _570
REMARK  210  A    between atoms: _575  and  _576
REMARK  211  A    between atoms: _578  and  _580
REMARK  212  A    between atoms: _580  and  _581
REMARK  213  A    between atoms: _580  and  _583
REMARK  214  A    between atoms: _583  and  _584
REMARK  215  A    between atoms: _584  and  _585
REMARK  216  A    between atoms: _588  and  _590
REMARK  217  A    between atoms: _590  and  _591
REMARK  218  A    between atoms: _590  and  _593
REMARK  219  A    between atoms: _593  and  _594
REMARK  220  A    between atoms: _594  and  _595
REMARK  221  A    between atoms: _595  and  _596
REMARK                            x       y       z     vdW  Elec       q    Type
REMARK                         _______ _______ _______ _____ _____    ______ ____
ROOT
ATOM      1  O   HOH     1     -12.941   9.070  -5.977  0.00  0.00    +0.000 OA
ENDROOT
TORSDOF 0
REMARK  Name = ../refined-set-2016/4zb8/4zb8_pocket.pdb
REMARK  221 active torsions:
REMARK  status: ('A' for Active; 'I' for Inactive)
REMARK    1  A    between atoms: _1  and  _3
REMARK    2  A    between atoms: _3  and  _4
REMARK    3  A    between atoms: _3  and  _6
REMARK    4  A    between atoms: _6  and  _7
REMARK    5  A    between atoms: _12  and  _13
REMARK    6  A    between atoms: _15  and  _17
REMARK    7  A    between atoms: _17  and  _18
REMARK    8  A    between atoms: _17  and  _20
REMARK    9  A    between atoms: _20  and  _21
REMARK   10  A    between atoms: _24  and  _26
REMARK   11  A    between atoms: _26  and  _27
REMARK   12  A    between atoms: _26  and  _29
REMARK   13  A    between atoms: _29  and  _30
REMARK   14  A    between atoms: _35  and  _37
REMARK   15  A    between atoms: _37  and  _38
REMARK   16  A    between atoms: _40  and  _42
REMARK   17  A    between atoms: _42  and  _43
REMARK   18  A    between atoms: _46  and  _47
REMARK   19  A    between atoms: _52  and  _54
REMARK   20  A    between atoms: _54  and  _55
REMARK   21  A    between atoms: _54  and  _57
REMARK   22  A    between atoms: _57  and  _58
REMARK   23  A    between atoms: _63  and  _65
REMARK   24  A    between atoms: _65  and  _66
REMARK   25  A    between atoms: _68  and  _70
REMARK   26  A    between atoms: _70  and  _71
REMARK   27  A    between atoms: _70  and  _73
REMARK   28  A    between atoms: _73  and  _74
REMARK   29  A    between atoms: _84  and  _86
REMARK   30  A    between atoms: _86  and  _87
REMARK   31  A    between atoms: _86  and  _89
REMARK   32  A    between atoms: _89  and  _90
REMARK   33  A    between atoms: _90  and  _91
REMARK   34  A    between atoms: _91  and  _92
REMARK   35  A    between atoms: _92  and  _93
REMARK   36  A    between atoms: _97  and  _99
REMARK   37  A    between atoms: _99  and  _100
REMARK   38  A    between atoms: _99  and  _102
REMARK   39  A    between atoms: _105  and  _107
REMARK   40  A    between atoms: _107  and  _108
REMARK   41  A    between atoms: _107  and  _110
REMARK   42  A    between atoms: _110  and  _111
REMARK   43  A    between atoms: _114  and  _116
REMARK   44  A    between atoms: _116  and  _117
REMARK   45  A    between atoms: _116  and  _119
REMARK   46  A    between atoms: _119  and  _120
REMARK   47  A    between atoms: _126  and  _128
REMARK   48  A    between atoms: _128  and  _129
REMARK   49  A    between atoms: _128  and  _131
REMARK   50  A    between atoms: _131  and  _132
REMARK   51  A    between atoms: _137  and  _139
REMARK   52  A    between atoms: _139  and  _140
REMARK   53  A    between atoms: _139  and  _142
REMARK   54  A    between atoms: _142  and  _143
REMARK   55  A    between atoms: _143  and  _144
REMARK   56  A    between atoms: _144  and  _145
REMARK   57  A    between atoms: _145  and  _146
REMARK   58  A    between atoms: _150  and  _152
REMARK   59  A    between atoms: _152  and  _153
REMARK   60  A    between atoms: _152  and  _155
REMARK   61  A    between atoms: _155  and  _156
REMARK   62  A    between atoms: _161  and  _162
REMARK   63  A    between atoms: _164  and  _166
REMARK   64  A    between atoms: _166  and  _167
REMARK   65  A    between atoms: _166  and  _169
REMARK   66  A    between atoms: _169  and  _170
REMARK   67  A    between atoms: _175  and  _177
REMARK   68  A    between atoms: _177  and  _178
REMARK   69  A    between atoms: _177  and  _180
REMARK   70  A    between atoms: _180  and  _181
REMARK   71  A    between atoms: _186  and  _188
REMARK   72  A    between atoms: _188  and  _189
REMARK   73  A    between atoms: _191  and  _193
REMARK   74  A    between atoms: _193  and  _194
REMARK   75  A    between atoms: _193  and  _196
REMARK   76  A    between atoms: _196  and  _197
REMARK   77  A    between atoms: _197  and  _198
REMARK   78  A    between atoms: _198  and  _199
REMARK   79  A    between atoms: _208  and  _210
REMARK   80  A    between atoms: _210  and  _211
REMARK   81  A    between atoms: _210  and  _213
REMARK   82  A    between atoms: _213  and  _214
REMARK   83  A    between atoms: _218  and  _219
REMARK   84  A    between atoms: _224  and  _226
REMARK   85  A    between atoms: _226  and  _227
REMARK   86  A    between atoms: _230  and  _232
REMARK   87  A    between atoms: _232  and  _233
REMARK   88  A    between atoms: _232  and  _235
REMARK   89  A    between atoms: _235  and  _236
REMARK   90  A    between atoms: _246  and  _248
REMARK   91  A    between atoms: _248  and  _249
REMARK   92  A    between atoms: _248  and  _251
REMARK   93  A    between atoms: _251  and  _252
REMARK   94  A    between atoms: _252  and  _253
REMARK   95  A    between atoms: _256  and  _258
REMARK   96  A    between atoms: _258  and  _259
REMARK   97  A    between atoms: _258  and  _261
REMARK   98  A    between atoms: _261  and  _262
REMARK   99  A    between atoms: _264  and  _266
REMARK  100  A    between atoms: _266  and  _267
REMARK  101  A    between atoms: _266  and  _269
REMARK  102  A    between atoms: _269  and  _270
REMARK  103  A    between atoms: _275  and  _277
REMARK  104  A    between atoms: _277  and  _278
REMARK  105  A    between atoms: _281  and  _283
REMARK  106  A    between atoms: _283  and  _284
REMARK  107  A    between atoms: _283  and  _286
REMARK  108  A    between atoms: _286  and  _287
REMARK  109  A    between atoms: _290  and  _292
REMARK  110  A    between atoms: _292  and  _293
REMARK  111  A    between atoms: _292  and  _295
REMARK  112  A    between atoms: _295  and  _296
REMARK  113  A    between atoms: _299  and  _301
REMARK  114  A    between atoms: _301  and  _302
REMARK  115  A    between atoms: _301  and  _304
REMARK  116  A    between atoms: _304  and  _305
REMARK  117  A    between atoms: _305  and  _306
REMARK  118  A    between atoms: _311  and  _313
REMARK  119  A    between atoms: _313  and  _314
REMARK  120  A    between atoms: _317  and  _319
REMARK  121  A    between atoms: _319  and  _320
REMARK  122  A    between atoms: _319  and  _322
REMARK  123  A    between atoms: _322  and  _323
REMARK  124  A    between atoms: _325  and  _327
REMARK  125  A    between atoms: _327  and  _328
REMARK  126  A    between atoms: _330  and  _332
REMARK  127  A    between atoms: _332  and  _333
REMARK  128  A    between atoms: _332  and  _335
REMARK  129  A    between atoms: _335  and  _336
REMARK  130  A    between atoms: _336  and  _337
REMARK  131  A    between atoms: _342  and  _344
REMARK  132  A    between atoms: _344  and  _345
REMARK  133  A    between atoms: _348  and  _349
REMARK  134  A    between atoms: _354  and  _356
REMARK  135  A    between atoms: _356  and  _357
REMARK  136  A    between atoms: _356  and  _359
REMARK  137  A    between atoms: _359  and  _360
REMARK  138  A    between atoms: _365  and  _366
REMARK  139  A    between atoms: _368  and  _370
REMARK  140  A    between atoms: _370  and  _371
REMARK  141  A    between atoms: _370  and  _373
REMARK  142  A    between atoms: _373  and  _374
REMARK  143  A    between atoms: _379  and  _380
REMARK  144  A    between atoms: _382  and  _384
REMARK  145  A    between atoms: _384  and  _385
REMARK  146  A    between atoms: _387  and  _389
REMARK  147  A    between atoms: _389  and  _390
REMARK  148  A    between atoms: _389  and  _392
REMARK  149  A    between atoms: _392  and  _393
REMARK  150  A    between atoms: _393  and  _394
REMARK  151  A    between atoms: _399  and  _401
REMARK  152  A    between atoms: _401  and  _402
REMARK  153  A    between atoms: _405  and  _407
REMARK  154  A    between atoms: _407  and  _408
REMARK  155  A    between atoms: _411  and  _413
REMARK  156  A    between atoms: _413  and  _414
REMARK  157  A    between atoms: _413  and  _416
REMARK  158  A    between atoms: _416  and  _417
REMARK  159  A    between atoms: _427  and  _429
REMARK  160  A    between atoms: _429  and  _430
REMARK  161  A    between atoms: _429  and  _432
REMARK  162  A    between atoms: _432  and  _433
REMARK  163  A    between atoms: _439  and  _441
REMARK  164  A    between atoms: _441  and  _442
REMARK  165  A    between atoms: _441  and  _444
REMARK  166  A    between atoms: _444  and  _445
REMARK  167  A    between atoms: _450  and  _451
REMARK  168  A    between atoms: _453  and  _455
REMARK  169  A    between atoms: _455  and  _456
REMARK  170  A    between atoms: _455  and  _458
REMARK  171  A    between atoms: _458  and  _459
REMARK  172  A    between atoms: _469  and  _471
REMARK  173  A    between atoms: _471  and  _472
REMARK  174  A    between atoms: _471  and  _474
REMARK  175  A    between atoms: _474  and  _475
REMARK  176  A    between atoms: _480  and  _481
REMARK  177  A    between atoms: _483  and  _485
REMARK  178  A    between atoms: _485  and  _486
REMARK  179  A    between atoms: _485  and  _488
REMARK  180  A    between atoms: _488  and  _489
REMARK  181  A    between atoms: _495  and  _497
REMARK  182  A    between atoms: _497  and  _498
REMARK  183  A    between atoms: _501  and  _503
REMARK  184  A    between atoms: _503  and  _504
REMARK  185  A    between atoms: _503  and  _506
REMARK  186  A    between atoms: _506  and  _507
REMARK  187  A    between atoms: _509  and  _511
REMARK  188  A    between atoms: _511  and  _512
REMARK  189  A    between atoms: _514  and  _516
REMARK  190  A    between atoms: _516  and  _517
REMARK  191  A    between atoms: _516  and  _519
REMARK  192  A    between atoms: _519  and  _520
REMARK  193  A    between atoms: _520  and  _521
REMARK  194  A    between atoms: _527  and  _528
REMARK  195  A    between atoms: _533  and  _535
REMARK  196  A    between atoms: _535  and  _536
REMARK  197  A    between atoms: _535  and  _538
REMARK  198  A    between atoms: _538  and  _539
REMARK  199  A    between atoms: _544  and  _545
REMARK  200  A    between atoms: _547  and  _549
REMARK  201  A    between atoms: _549  and  _550
REMARK  202  A    between atoms: _549  and  _552
REMARK  203  A    between atoms: _552  and  _553
REMARK  204  A    between atoms: _553  and  _554
REMARK  205  A    between atoms: _554  and  _555
REMARK  206  A    between atoms: _564  and  _566
REMARK  207  A    between atoms: _566  and  _567
REMARK  208  A    between atoms: _566  and  _569
REMARK  209  A    between atoms: _569  and  _570
REMARK  210  A    between atoms: _575  and  _576
REMARK  211  A    between atoms: _578  and  _580
REMARK  212  A    between atoms: _580  and  _581
REMARK  213  A    between atoms: _580  and  _583
REMARK  214  A    between atoms: _583  and  _584
REMARK  215  A    between atoms: _584  and  _585
REMARK  216  A    between atoms: _588  and  _590
REMARK  217  A    between atoms: _590  and  _591
REMARK  218  A    between atoms: _590  and  _593
REMARK  219  A    between atoms: _593  and  _594
REMARK  220  A    between atoms: _594  and  _595
REMARK  221  A    between atoms: _595  and  _596
REMARK                            x       y       z     vdW  Elec       q    Type
REMARK                         _______ _______ _______ _____ _____    ______ ____
ROOT
ATOM      1  O   HOH     1      -9.852   6.948 -15.153  0.00  0.00    +0.000 OA
ENDROOT
TORSDOF 0
REMARK  Name = ../refined-set-2016/4zb8/4zb8_pocket.pdb
REMARK  221 active torsions:
REMARK  status: ('A' for Active; 'I' for Inactive)
REMARK    1  A    between atoms: _1  and  _3
REMARK    2  A    between atoms: _3  and  _4
REMARK    3  A    between atoms: _3  and  _6
REMARK    4  A    between atoms: _6  and  _7
REMARK    5  A    between atoms: _12  and  _13
REMARK    6  A    between atoms: _15  and  _17
REMARK    7  A    between atoms: _17  and  _18
REMARK    8  A    between atoms: _17  and  _20
REMARK    9  A    between atoms: _20  and  _21
REMARK   10  A    between atoms: _24  and  _26
REMARK   11  A    between atoms: _26  and  _27
REMARK   12  A    between atoms: _26  and  _29
REMARK   13  A    between atoms: _29  and  _30
REMARK   14  A    between atoms: _35  and  _37
REMARK   15  A    between atoms: _37  and  _38
REMARK   16  A    between atoms: _40  and  _42
REMARK   17  A    between atoms: _42  and  _43
REMARK   18  A    between atoms: _46  and  _47
REMARK   19  A    between atoms: _52  and  _54
REMARK   20  A    between atoms: _54  and  _55
REMARK   21  A    between atoms: _54  and  _57
REMARK   22  A    between atoms: _57  and  _58
REMARK   23  A    between atoms: _63  and  _65
REMARK   24  A    between atoms: _65  and  _66
REMARK   25  A    between atoms: _68  and  _70
REMARK   26  A    between atoms: _70  and  _71
REMARK   27  A    between atoms: _70  and  _73
REMARK   28  A    between atoms: _73  and  _74
REMARK   29  A    between atoms: _84  and  _86
REMARK   30  A    between atoms: _86  and  _87
REMARK   31  A    between atoms: _86  and  _89
REMARK   32  A    between atoms: _89  and  _90
REMARK   33  A    between atoms: _90  and  _91
REMARK   34  A    between atoms: _91  and  _92
REMARK   35  A    between atoms: _92  and  _93
REMARK   36  A    between atoms: _97  and  _99
REMARK   37  A    between atoms: _99  and  _100
REMARK   38  A    between atoms: _99  and  _102
REMARK   39  A    between atoms: _105  and  _107
REMARK   40  A    between atoms: _107  and  _108
REMARK   41  A    between atoms: _107  and  _110
REMARK   42  A    between atoms: _110  and  _111
REMARK   43  A    between atoms: _114  and  _116
REMARK   44  A    between atoms: _116  and  _117
REMARK   45  A    between atoms: _116  and  _119
REMARK   46  A    between atoms: _119  and  _120
REMARK   47  A    between atoms: _126  and  _128
REMARK   48  A    between atoms: _128  and  _129
REMARK   49  A    between atoms: _128  and  _131
REMARK   50  A    between atoms: _131  and  _132
REMARK   51  A    between atoms: _137  and  _139
REMARK   52  A    between atoms: _139  and  _140
REMARK   53  A    between atoms: _139  and  _142
REMARK   54  A    between atoms: _142  and  _143
REMARK   55  A    between atoms: _143  and  _144
REMARK   56  A    between atoms: _144  and  _145
REMARK   57  A    between atoms: _145  and  _146
REMARK   58  A    between atoms: _150  and  _152
REMARK   59  A    between atoms: _152  and  _153
REMARK   60  A    between atoms: _152  and  _155
REMARK   61  A    between atoms: _155  and  _156
REMARK   62  A    between atoms: _161  and  _162
REMARK   63  A    between atoms: _164  and  _166
REMARK   64  A    between atoms: _166  and  _167
REMARK   65  A    between atoms: _166  and  _169
REMARK   66  A    between atoms: _169  and  _170
REMARK   67  A    between atoms: _175  and  _177
REMARK   68  A    between atoms: _177  and  _178
REMARK   69  A    between atoms: _177  and  _180
REMARK   70  A    between atoms: _180  and  _181
REMARK   71  A    between atoms: _186  and  _188
REMARK   72  A    between atoms: _188  and  _189
REMARK   73  A    between atoms: _191  and  _193
REMARK   74  A    between atoms: _193  and  _194
REMARK   75  A    between atoms: _193  and  _196
REMARK   76  A    between atoms: _196  and  _197
REMARK   77  A    between atoms: _197  and  _198
REMARK   78  A    between atoms: _198  and  _199
REMARK   79  A    between atoms: _208  and  _210
REMARK   80  A    between atoms: _210  and  _211
REMARK   81  A    between atoms: _210  and  _213
REMARK   82  A    between atoms: _213  and  _214
REMARK   83  A    between atoms: _218  and  _219
REMARK   84  A    between atoms: _224  and  _226
REMARK   85  A    between atoms: _226  and  _227
REMARK   86  A    between atoms: _230  and  _232
REMARK   87  A    between atoms: _232  and  _233
REMARK   88  A    between atoms: _232  and  _235
REMARK   89  A    between atoms: _235  and  _236
REMARK   90  A    between atoms: _246  and  _248
REMARK   91  A    between atoms: _248  and  _249
REMARK   92  A    between atoms: _248  and  _251
REMARK   93  A    between atoms: _251  and  _252
REMARK   94  A    between atoms: _252  and  _253
REMARK   95  A    between atoms: _256  and  _258
REMARK   96  A    between atoms: _258  and  _259
REMARK   97  A    between atoms: _258  and  _261
REMARK   98  A    between atoms: _261  and  _262
REMARK   99  A    between atoms: _264  and  _266
REMARK  100  A    between atoms: _266  and  _267
REMARK  101  A    between atoms: _266  and  _269
REMARK  102  A    between atoms: _269  and  _270
REMARK  103  A    between atoms: _275  and  _277
REMARK  104  A    between atoms: _277  and  _278
REMARK  105  A    between atoms: _281  and  _283
REMARK  106  A    between atoms: _283  and  _284
REMARK  107  A    between atoms: _283  and  _286
REMARK  108  A    between atoms: _286  and  _287
REMARK  109  A    between atoms: _290  and  _292
REMARK  110  A    between atoms: _292  and  _293
REMARK  111  A    between atoms: _292  and  _295
REMARK  112  A    between atoms: _295  and  _296
REMARK  113  A    between atoms: _299  and  _301
REMARK  114  A    between atoms: _301  and  _302
REMARK  115  A    between atoms: _301  and  _304
REMARK  116  A    between atoms: _304  and  _305
REMARK  117  A    between atoms: _305  and  _306
REMARK  118  A    between atoms: _311  and  _313
REMARK  119  A    between atoms: _313  and  _314
REMARK  120  A    between atoms: _317  and  _319
REMARK  121  A    between atoms: _319  and  _320
REMARK  122  A    between atoms: _319  and  _322
REMARK  123  A    between atoms: _322  and  _323
REMARK  124  A    between atoms: _325  and  _327
REMARK  125  A    between atoms: _327  and  _328
REMARK  126  A    between atoms: _330  and  _332
REMARK  127  A    between atoms: _332  and  _333
REMARK  128  A    between atoms: _332  and  _335
REMARK  129  A    between atoms: _335  and  _336
REMARK  130  A    between atoms: _336  and  _337
REMARK  131  A    between atoms: _342  and  _344
REMARK  132  A    between atoms: _344  and  _345
REMARK  133  A    between atoms: _348  and  _349
REMARK  134  A    between atoms: _354  and  _356
REMARK  135  A    between atoms: _356  and  _357
REMARK  136  A    between atoms: _356  and  _359
REMARK  137  A    between atoms: _359  and  _360
REMARK  138  A    between atoms: _365  and  _366
REMARK  139  A    between atoms: _368  and  _370
REMARK  140  A    between atoms: _370  and  _371
REMARK  141  A    between atoms: _370  and  _373
REMARK  142  A    between atoms: _373  and  _374
REMARK  143  A    between atoms: _379  and  _380
REMARK  144  A    between atoms: _382  and  _384
REMARK  145  A    between atoms: _384  and  _385
REMARK  146  A    between atoms: _387  and  _389
REMARK  147  A    between atoms: _389  and  _390
REMARK  148  A    between atoms: _389  and  _392
REMARK  149  A    between atoms: _392  and  _393
REMARK  150  A    between atoms: _393  and  _394
REMARK  151  A    between atoms: _399  and  _401
REMARK  152  A    between atoms: _401  and  _402
REMARK  153  A    between atoms: _405  and  _407
REMARK  154  A    between atoms: _407  and  _408
REMARK  155  A    between atoms: _411  and  _413
REMARK  156  A    between atoms: _413  and  _414
REMARK  157  A    between atoms: _413  and  _416
REMARK  158  A    between atoms: _416  and  _417
REMARK  159  A    between atoms: _427  and  _429
REMARK  160  A    between atoms: _429  and  _430
REMARK  161  A    between atoms: _429  and  _432
REMARK  162  A    between atoms: _432  and  _433
REMARK  163  A    between atoms: _439  and  _441
REMARK  164  A    between atoms: _441  and  _442
REMARK  165  A    between atoms: _441  and  _444
REMARK  166  A    between atoms: _444  and  _445
REMARK  167  A    between atoms: _450  and  _451
REMARK  168  A    between atoms: _453  and  _455
REMARK  169  A    between atoms: _455  and  _456
REMARK  170  A    between atoms: _455  and  _458
REMARK  171  A    between atoms: _458  and  _459
REMARK  172  A    between atoms: _469  and  _471
REMARK  173  A    between atoms: _471  and  _472
REMARK  174  A    between atoms: _471  and  _474
REMARK  175  A    between atoms: _474  and  _475
REMARK  176  A    between atoms: _480  and  _481
REMARK  177  A    between atoms: _483  and  _485
REMARK  178  A    between atoms: _485  and  _486
REMARK  179  A    between atoms: _485  and  _488
REMARK  180  A    between atoms: _488  and  _489
REMARK  181  A    between atoms: _495  and  _497
REMARK  182  A    between atoms: _497  and  _498
REMARK  183  A    between atoms: _501  and  _503
REMARK  184  A    between atoms: _503  and  _504
REMARK  185  A    between atoms: _503  and  _506
REMARK  186  A    between atoms: _506  and  _507
REMARK  187  A    between atoms: _509  and  _511
REMARK  188  A    between atoms: _511  and  _512
REMARK  189  A    between atoms: _514  and  _516
REMARK  190  A    between atoms: _516  and  _517
REMARK  191  A    between atoms: _516  and  _519
REMARK  192  A    between atoms: _519  and  _520
REMARK  193  A    between atoms: _520  and  _521
REMARK  194  A    between atoms: _527  and  _528
REMARK  195  A    between atoms: _533  and  _535
REMARK  196  A    between atoms: _535  and  _536
REMARK  197  A    between atoms: _535  and  _538
REMARK  198  A    between atoms: _538  and  _539
REMARK  199  A    between atoms: _544  and  _545
REMARK  200  A    between atoms: _547  and  _549
REMARK  201  A    between atoms: _549  and  _550
REMARK  202  A    between atoms: _549  and  _552
REMARK  203  A    between atoms: _552  and  _553
REMARK  204  A    between atoms: _553  and  _554
REMARK  205  A    between atoms: _554  and  _555
REMARK  206  A    between atoms: _564  and  _566
REMARK  207  A    between atoms: _566  and  _567
REMARK  208  A    between atoms: _566  and  _569
REMARK  209  A    between atoms: _569  and  _570
REMARK  210  A    between atoms: _575  and  _576
REMARK  211  A    between atoms: _578  and  _580
REMARK  212  A    between atoms: _580  and  _581
REMARK  213  A    between atoms: _580  and  _583
REMARK  214  A    between atoms: _583  and  _584
REMARK  215  A    between atoms: _584  and  _585
REMARK  216  A    between atoms: _588  and  _590
REMARK  217  A    between atoms: _590  and  _591
REMARK  218  A    between atoms: _590  and  _593
REMARK  219  A    between atoms: _593  and  _594
REMARK  220  A    between atoms: _594  and  _595
REMARK  221  A    between atoms: _595  and  _596
REMARK                            x       y       z     vdW  Elec       q    Type
REMARK                         _______ _______ _______ _____ _____    ______ ____
ROOT
ATOM      1  O   HOH     1      -9.946   1.600  -4.495  0.00  0.00    +0.000 OA
ENDROOT
TORSDOF 0
REMARK  Name = ../refined-set-2016/4zb8/4zb8_pocket.pdb
REMARK  221 active torsions:
REMARK  status: ('A' for Active; 'I' for Inactive)
REMARK    1  A    between atoms: _1  and  _3
REMARK    2  A    between atoms: _3  and  _4
REMARK    3  A    between atoms: _3  and  _6
REMARK    4  A    between atoms: _6  and  _7
REMARK    5  A    between atoms: _12  and  _13
REMARK    6  A    between atoms: _15  and  _17
REMARK    7  A    between atoms: _17  and  _18
REMARK    8  A    between atoms: _17  and  _20
REMARK    9  A    between atoms: _20  and  _21
REMARK   10  A    between atoms: _24  and  _26
REMARK   11  A    between atoms: _26  and  _27
REMARK   12  A    between atoms: _26  and  _29
REMARK   13  A    between atoms: _29  and  _30
REMARK   14  A    between atoms: _35  and  _37
REMARK   15  A    between atoms: _37  and  _38
REMARK   16  A    between atoms: _40  and  _42
REMARK   17  A    between atoms: _42  and  _43
REMARK   18  A    between atoms: _46  and  _47
REMARK   19  A    between atoms: _52  and  _54
REMARK   20  A    between atoms: _54  and  _55
REMARK   21  A    between atoms: _54  and  _57
REMARK   22  A    between atoms: _57  and  _58
REMARK   23  A    between atoms: _63  and  _65
REMARK   24  A    between atoms: _65  and  _66
REMARK   25  A    between atoms: _68  and  _70
REMARK   26  A    between atoms: _70  and  _71
REMARK   27  A    between atoms: _70  and  _73
REMARK   28  A    between atoms: _73  and  _74
REMARK   29  A    between atoms: _84  and  _86
REMARK   30  A    between atoms: _86  and  _87
REMARK   31  A    between atoms: _86  and  _89
REMARK   32  A    between atoms: _89  and  _90
REMARK   33  A    between atoms: _90  and  _91
REMARK   34  A    between atoms: _91  and  _92
REMARK   35  A    between atoms: _92  and  _93
REMARK   36  A    between atoms: _97  and  _99
REMARK   37  A    between atoms: _99  and  _100
REMARK   38  A    between atoms: _99  and  _102
REMARK   39  A    between atoms: _105  and  _107
REMARK   40  A    between atoms: _107  and  _108
REMARK   41  A    between atoms: _107  and  _110
REMARK   42  A    between atoms: _110  and  _111
REMARK   43  A    between atoms: _114  and  _116
REMARK   44  A    between atoms: _116  and  _117
REMARK   45  A    between atoms: _116  and  _119
REMARK   46  A    between atoms: _119  and  _120
REMARK   47  A    between atoms: _126  and  _128
REMARK   48  A    between atoms: _128  and  _129
REMARK   49  A    between atoms: _128  and  _131
REMARK   50  A    between atoms: _131  and  _132
REMARK   51  A    between atoms: _137  and  _139
REMARK   52  A    between atoms: _139  and  _140
REMARK   53  A    between atoms: _139  and  _142
REMARK   54  A    between atoms: _142  and  _143
REMARK   55  A    between atoms: _143  and  _144
REMARK   56  A    between atoms: _144  and  _145
REMARK   57  A    between atoms: _145  and  _146
REMARK   58  A    between atoms: _150  and  _152
REMARK   59  A    between atoms: _152  and  _153
REMARK   60  A    between atoms: _152  and  _155
REMARK   61  A    between atoms: _155  and  _156
REMARK   62  A    between atoms: _161  and  _162
REMARK   63  A    between atoms: _164  and  _166
REMARK   64  A    between atoms: _166  and  _167
REMARK   65  A    between atoms: _166  and  _169
REMARK   66  A    between atoms: _169  and  _170
REMARK   67  A    between atoms: _175  and  _177
REMARK   68  A    between atoms: _177  and  _178
REMARK   69  A    between atoms: _177  and  _180
REMARK   70  A    between atoms: _180  and  _181
REMARK   71  A    between atoms: _186  and  _188
REMARK   72  A    between atoms: _188  and  _189
REMARK   73  A    between atoms: _191  and  _193
REMARK   74  A    between atoms: _193  and  _194
REMARK   75  A    between atoms: _193  and  _196
REMARK   76  A    between atoms: _196  and  _197
REMARK   77  A    between atoms: _197  and  _198
REMARK   78  A    between atoms: _198  and  _199
REMARK   79  A    between atoms: _208  and  _210
REMARK   80  A    between atoms: _210  and  _211
REMARK   81  A    between atoms: _210  and  _213
REMARK   82  A    between atoms: _213  and  _214
REMARK   83  A    between atoms: _218  and  _219
REMARK   84  A    between atoms: _224  and  _226
REMARK   85  A    between atoms: _226  and  _227
REMARK   86  A    between atoms: _230  and  _232
REMARK   87  A    between atoms: _232  and  _233
REMARK   88  A    between atoms: _232  and  _235
REMARK   89  A    between atoms: _235  and  _236
REMARK   90  A    between atoms: _246  and  _248
REMARK   91  A    between atoms: _248  and  _249
REMARK   92  A    between atoms: _248  and  _251
REMARK   93  A    between atoms: _251  and  _252
REMARK   94  A    between atoms: _252  and  _253
REMARK   95  A    between atoms: _256  and  _258
REMARK   96  A    between atoms: _258  and  _259
REMARK   97  A    between atoms: _258  and  _261
REMARK   98  A    between atoms: _261  and  _262
REMARK   99  A    between atoms: _264  and  _266
REMARK  100  A    between atoms: _266  and  _267
REMARK  101  A    between atoms: _266  and  _269
REMARK  102  A    between atoms: _269  and  _270
REMARK  103  A    between atoms: _275  and  _277
REMARK  104  A    between atoms: _277  and  _278
REMARK  105  A    between atoms: _281  and  _283
REMARK  106  A    between atoms: _283  and  _284
REMARK  107  A    between atoms: _283  and  _286
REMARK  108  A    between atoms: _286  and  _287
REMARK  109  A    between atoms: _290  and  _292
REMARK  110  A    between atoms: _292  and  _293
REMARK  111  A    between atoms: _292  and  _295
REMARK  112  A    between atoms: _295  and  _296
REMARK  113  A    between atoms: _299  and  _301
REMARK  114  A    between atoms: _301  and  _302
REMARK  115  A    between atoms: _301  and  _304
REMARK  116  A    between atoms: _304  and  _305
REMARK  117  A    between atoms: _305  and  _306
REMARK  118  A    between atoms: _311  and  _313
REMARK  119  A    between atoms: _313  and  _314
REMARK  120  A    between atoms: _317  and  _319
REMARK  121  A    between atoms: _319  and  _320
REMARK  122  A    between atoms: _319  and  _322
REMARK  123  A    between atoms: _322  and  _323
REMARK  124  A    between atoms: _325  and  _327
REMARK  125  A    between atoms: _327  and  _328
REMARK  126  A    between atoms: _330  and  _332
REMARK  127  A    between atoms: _332  and  _333
REMARK  128  A    between atoms: _332  and  _335
REMARK  129  A    between atoms: _335  and  _336
REMARK  130  A    between atoms: _336  and  _337
REMARK  131  A    between atoms: _342  and  _344
REMARK  132  A    between atoms: _344  and  _345
REMARK  133  A    between atoms: _348  and  _349
REMARK  134  A    between atoms: _354  and  _356
REMARK  135  A    between atoms: _356  and  _357
REMARK  136  A    between atoms: _356  and  _359
REMARK  137  A    between atoms: _359  and  _360
REMARK  138  A    between atoms: _365  and  _366
REMARK  139  A    between atoms: _368  and  _370
REMARK  140  A    between atoms: _370  and  _371
REMARK  141  A    between atoms: _370  and  _373
REMARK  142  A    between atoms: _373  and  _374
REMARK  143  A    between atoms: _379  and  _380
REMARK  144  A    between atoms: _382  and  _384
REMARK  145  A    between atoms: _384  and  _385
REMARK  146  A    between atoms: _387  and  _389
REMARK  147  A    between atoms: _389  and  _390
REMARK  148  A    between atoms: _389  and  _392
REMARK  149  A    between atoms: _392  and  _393
REMARK  150  A    between atoms: _393  and  _394
REMARK  151  A    between atoms: _399  and  _401
REMARK  152  A    between atoms: _401  and  _402
REMARK  153  A    between atoms: _405  and  _407
REMARK  154  A    between atoms: _407  and  _408
REMARK  155  A    between atoms: _411  and  _413
REMARK  156  A    between atoms: _413  and  _414
REMARK  157  A    between atoms: _413  and  _416
REMARK  158  A    between atoms: _416  and  _417
REMARK  159  A    between atoms: _427  and  _429
REMARK  160  A    between atoms: _429  and  _430
REMARK  161  A    between atoms: _429  and  _432
REMARK  162  A    between atoms: _432  and  _433
REMARK  163  A    between atoms: _439  and  _441
REMARK  164  A    between atoms: _441  and  _442
REMARK  165  A    between atoms: _441  and  _444
REMARK  166  A    between atoms: _444  and  _445
REMARK  167  A    between atoms: _450  and  _451
REMARK  168  A    between atoms: _453  and  _455
REMARK  169  A    between atoms: _455  and  _456
REMARK  170  A    between atoms: _455  and  _458
REMARK  171  A    between atoms: _458  and  _459
REMARK  172  A    between atoms: _469  and  _471
REMARK  173  A    between atoms: _471  and  _472
REMARK  174  A    between atoms: _471  and  _474
REMARK  175  A    between atoms: _474  and  _475
REMARK  176  A    between atoms: _480  and  _481
REMARK  177  A    between atoms: _483  and  _485
REMARK  178  A    between atoms: _485  and  _486
REMARK  179  A    between atoms: _485  and  _488
REMARK  180  A    between atoms: _488  and  _489
REMARK  181  A    between atoms: _495  and  _497
REMARK  182  A    between atoms: _497  and  _498
REMARK  183  A    between atoms: _501  and  _503
REMARK  184  A    between atoms: _503  and  _504
REMARK  185  A    between atoms: _503  and  _506
REMARK  186  A    between atoms: _506  and  _507
REMARK  187  A    between atoms: _509  and  _511
REMARK  188  A    between atoms: _511  and  _512
REMARK  189  A    between atoms: _514  and  _516
REMARK  190  A    between atoms: _516  and  _517
REMARK  191  A    between atoms: _516  and  _519
REMARK  192  A    between atoms: _519  and  _520
REMARK  193  A    between atoms: _520  and  _521
REMARK  194  A    between atoms: _527  and  _528
REMARK  195  A    between atoms: _533  and  _535
REMARK  196  A    between atoms: _535  and  _536
REMARK  197  A    between atoms: _535  and  _538
REMARK  198  A    between atoms: _538  and  _539
REMARK  199  A    between atoms: _544  and  _545
REMARK  200  A    between atoms: _547  and  _549
REMARK  201  A    between atoms: _549  and  _550
REMARK  202  A    between atoms: _549  and  _552
REMARK  203  A    between atoms: _552  and  _553
REMARK  204  A    between atoms: _553  and  _554
REMARK  205  A    between atoms: _554  and  _555
REMARK  206  A    between atoms: _564  and  _566
REMARK  207  A    between atoms: _566  and  _567
REMARK  208  A    between atoms: _566  and  _569
REMARK  209  A    between atoms: _569  and  _570
REMARK  210  A    between atoms: _575  and  _576
REMARK  211  A    between atoms: _578  and  _580
REMARK  212  A    between atoms: _580  and  _581
REMARK  213  A    between atoms: _580  and  _583
REMARK  214  A    between atoms: _583  and  _584
REMARK  215  A    between atoms: _584  and  _585
REMARK  216  A    between atoms: _588  and  _590
REMARK  217  A    between atoms: _590  and  _591
REMARK  218  A    between atoms: _590  and  _593
REMARK  219  A    between atoms: _593  and  _594
REMARK  220  A    between atoms: _594  and  _595
REMARK  221  A    between atoms: _595  and  _596
REMARK                            x       y       z     vdW  Elec       q    Type
REMARK                         _______ _______ _______ _____ _____    ______ ____
ROOT
ATOM      1  O   HOH     1     -10.502  -2.527 -10.905  0.00  0.00    +0.000 OA
ENDROOT
TORSDOF 0
REMARK  Name = ../refined-set-2016/4zb8/4zb8_pocket.pdb
REMARK  221 active torsions:
REMARK  status: ('A' for Active; 'I' for Inactive)
REMARK    1  A    between atoms: _1  and  _3
REMARK    2  A    between atoms: _3  and  _4
REMARK    3  A    between atoms: _3  and  _6
REMARK    4  A    between atoms: _6  and  _7
REMARK    5  A    between atoms: _12  and  _13
REMARK    6  A    between atoms: _15  and  _17
REMARK    7  A    between atoms: _17  and  _18
REMARK    8  A    between atoms: _17  and  _20
REMARK    9  A    between atoms: _20  and  _21
REMARK   10  A    between atoms: _24  and  _26
REMARK   11  A    between atoms: _26  and  _27
REMARK   12  A    between atoms: _26  and  _29
REMARK   13  A    between atoms: _29  and  _30
REMARK   14  A    between atoms: _35  and  _37
REMARK   15  A    between atoms: _37  and  _38
REMARK   16  A    between atoms: _40  and  _42
REMARK   17  A    between atoms: _42  and  _43
REMARK   18  A    between atoms: _46  and  _47
REMARK   19  A    between atoms: _52  and  _54
REMARK   20  A    between atoms: _54  and  _55
REMARK   21  A    between atoms: _54  and  _57
REMARK   22  A    between atoms: _57  and  _58
REMARK   23  A    between atoms: _63  and  _65
REMARK   24  A    between atoms: _65  and  _66
REMARK   25  A    between atoms: _68  and  _70
REMARK   26  A    between atoms: _70  and  _71
REMARK   27  A    between atoms: _70  and  _73
REMARK   28  A    between atoms: _73  and  _74
REMARK   29  A    between atoms: _84  and  _86
REMARK   30  A    between atoms: _86  and  _87
REMARK   31  A    between atoms: _86  and  _89
REMARK   32  A    between atoms: _89  and  _90
REMARK   33  A    between atoms: _90  and  _91
REMARK   34  A    between atoms: _91  and  _92
REMARK   35  A    between atoms: _92  and  _93
REMARK   36  A    between atoms: _97  and  _99
REMARK   37  A    between atoms: _99  and  _100
REMARK   38  A    between atoms: _99  and  _102
REMARK   39  A    between atoms: _105  and  _107
REMARK   40  A    between atoms: _107  and  _108
REMARK   41  A    between atoms: _107  and  _110
REMARK   42  A    between atoms: _110  and  _111
REMARK   43  A    between atoms: _114  and  _116
REMARK   44  A    between atoms: _116  and  _117
REMARK   45  A    between atoms: _116  and  _119
REMARK   46  A    between atoms: _119  and  _120
REMARK   47  A    between atoms: _126  and  _128
REMARK   48  A    between atoms: _128  and  _129
REMARK   49  A    between atoms: _128  and  _131
REMARK   50  A    between atoms: _131  and  _132
REMARK   51  A    between atoms: _137  and  _139
REMARK   52  A    between atoms: _139  and  _140
REMARK   53  A    between atoms: _139  and  _142
REMARK   54  A    between atoms: _142  and  _143
REMARK   55  A    between atoms: _143  and  _144
REMARK   56  A    between atoms: _144  and  _145
REMARK   57  A    between atoms: _145  and  _146
REMARK   58  A    between atoms: _150  and  _152
REMARK   59  A    between atoms: _152  and  _153
REMARK   60  A    between atoms: _152  and  _155
REMARK   61  A    between atoms: _155  and  _156
REMARK   62  A    between atoms: _161  and  _162
REMARK   63  A    between atoms: _164  and  _166
REMARK   64  A    between atoms: _166  and  _167
REMARK   65  A    between atoms: _166  and  _169
REMARK   66  A    between atoms: _169  and  _170
REMARK   67  A    between atoms: _175  and  _177
REMARK   68  A    between atoms: _177  and  _178
REMARK   69  A    between atoms: _177  and  _180
REMARK   70  A    between atoms: _180  and  _181
REMARK   71  A    between atoms: _186  and  _188
REMARK   72  A    between atoms: _188  and  _189
REMARK   73  A    between atoms: _191  and  _193
REMARK   74  A    between atoms: _193  and  _194
REMARK   75  A    between atoms: _193  and  _196
REMARK   76  A    between atoms: _196  and  _197
REMARK   77  A    between atoms: _197  and  _198
REMARK   78  A    between atoms: _198  and  _199
REMARK   79  A    between atoms: _208  and  _210
REMARK   80  A    between atoms: _210  and  _211
REMARK   81  A    between atoms: _210  and  _213
REMARK   82  A    between atoms: _213  and  _214
REMARK   83  A    between atoms: _218  and  _219
REMARK   84  A    between atoms: _224  and  _226
REMARK   85  A    between atoms: _226  and  _227
REMARK   86  A    between atoms: _230  and  _232
REMARK   87  A    between atoms: _232  and  _233
REMARK   88  A    between atoms: _232  and  _235
REMARK   89  A    between atoms: _235  and  _236
REMARK   90  A    between atoms: _246  and  _248
REMARK   91  A    between atoms: _248  and  _249
REMARK   92  A    between atoms: _248  and  _251
REMARK   93  A    between atoms: _251  and  _252
REMARK   94  A    between atoms: _252  and  _253
REMARK   95  A    between atoms: _256  and  _258
REMARK   96  A    between atoms: _258  and  _259
REMARK   97  A    between atoms: _258  and  _261
REMARK   98  A    between atoms: _261  and  _262
REMARK   99  A    between atoms: _264  and  _266
REMARK  100  A    between atoms: _266  and  _267
REMARK  101  A    between atoms: _266  and  _269
REMARK  102  A    between atoms: _269  and  _270
REMARK  103  A    between atoms: _275  and  _277
REMARK  104  A    between atoms: _277  and  _278
REMARK  105  A    between atoms: _281  and  _283
REMARK  106  A    between atoms: _283  and  _284
REMARK  107  A    between atoms: _283  and  _286
REMARK  108  A    between atoms: _286  and  _287
REMARK  109  A    between atoms: _290  and  _292
REMARK  110  A    between atoms: _292  and  _293
REMARK  111  A    between atoms: _292  and  _295
REMARK  112  A    between atoms: _295  and  _296
REMARK  113  A    between atoms: _299  and  _301
REMARK  114  A    between atoms: _301  and  _302
REMARK  115  A    between atoms: _301  and  _304
REMARK  116  A    between atoms: _304  and  _305
REMARK  117  A    between atoms: _305  and  _306
REMARK  118  A    between atoms: _311  and  _313
REMARK  119  A    between atoms: _313  and  _314
REMARK  120  A    between atoms: _317  and  _319
REMARK  121  A    between atoms: _319  and  _320
REMARK  122  A    between atoms: _319  and  _322
REMARK  123  A    between atoms: _322  and  _323
REMARK  124  A    between atoms: _325  and  _327
REMARK  125  A    between atoms: _327  and  _328
REMARK  126  A    between atoms: _330  and  _332
REMARK  127  A    between atoms: _332  and  _333
REMARK  128  A    between atoms: _332  and  _335
REMARK  129  A    between atoms: _335  and  _336
REMARK  130  A    between atoms: _336  and  _337
REMARK  131  A    between atoms: _342  and  _344
REMARK  132  A    between atoms: _344  and  _345
REMARK  133  A    between atoms: _348  and  _349
REMARK  134  A    between atoms: _354  and  _356
REMARK  135  A    between atoms: _356  and  _357
REMARK  136  A    between atoms: _356  and  _359
REMARK  137  A    between atoms: _359  and  _360
REMARK  138  A    between atoms: _365  and  _366
REMARK  139  A    between atoms: _368  and  _370
REMARK  140  A    between atoms: _370  and  _371
REMARK  141  A    between atoms: _370  and  _373
REMARK  142  A    between atoms: _373  and  _374
REMARK  143  A    between atoms: _379  and  _380
REMARK  144  A    between atoms: _382  and  _384
REMARK  145  A    between atoms: _384  and  _385
REMARK  146  A    between atoms: _387  and  _389
REMARK  147  A    between atoms: _389  and  _390
REMARK  148  A    between atoms: _389  and  _392
REMARK  149  A    between atoms: _392  and  _393
REMARK  150  A    between atoms: _393  and  _394
REMARK  151  A    between atoms: _399  and  _401
REMARK  152  A    between atoms: _401  and  _402
REMARK  153  A    between atoms: _405  and  _407
REMARK  154  A    between atoms: _407  and  _408
REMARK  155  A    between atoms: _411  and  _413
REMARK  156  A    between atoms: _413  and  _414
REMARK  157  A    between atoms: _413  and  _416
REMARK  158  A    between atoms: _416  and  _417
REMARK  159  A    between atoms: _427  and  _429
REMARK  160  A    between atoms: _429  and  _430
REMARK  161  A    between atoms: _429  and  _432
REMARK  162  A    between atoms: _432  and  _433
REMARK  163  A    between atoms: _439  and  _441
REMARK  164  A    between atoms: _441  and  _442
REMARK  165  A    between atoms: _441  and  _444
REMARK  166  A    between atoms: _444  and  _445
REMARK  167  A    between atoms: _450  and  _451
REMARK  168  A    between atoms: _453  and  _455
REMARK  169  A    between atoms: _455  and  _456
REMARK  170  A    between atoms: _455  and  _458
REMARK  171  A    between atoms: _458  and  _459
REMARK  172  A    between atoms: _469  and  _471
REMARK  173  A    between atoms: _471  and  _472
REMARK  174  A    between atoms: _471  and  _474
REMARK  175  A    between atoms: _474  and  _475
REMARK  176  A    between atoms: _480  and  _481
REMARK  177  A    between atoms: _483  and  _485
REMARK  178  A    between atoms: _485  and  _486
REMARK  179  A    between atoms: _485  and  _488
REMARK  180  A    between atoms: _488  and  _489
REMARK  181  A    between atoms: _495  and  _497
REMARK  182  A    between atoms: _497  and  _498
REMARK  183  A    between atoms: _501  and  _503
REMARK  184  A    between atoms: _503  and  _504
REMARK  185  A    between atoms: _503  and  _506
REMARK  186  A    between atoms: _506  and  _507
REMARK  187  A    between atoms: _509  and  _511
REMARK  188  A    between atoms: _511  and  _512
REMARK  189  A    between atoms: _514  and  _516
REMARK  190  A    between atoms: _516  and  _517
REMARK  191  A    between atoms: _516  and  _519
REMARK  192  A    between atoms: _519  and  _520
REMARK  193  A    between atoms: _520  and  _521
REMARK  194  A    between atoms: _527  and  _528
REMARK  195  A    between atoms: _533  and  _535
REMARK  196  A    between atoms: _535  and  _536
REMARK  197  A    between atoms: _535  and  _538
REMARK  198  A    between atoms: _538  and  _539
REMARK  199  A    between atoms: _544  and  _545
REMARK  200  A    between atoms: _547  and  _549
REMARK  201  A    between atoms: _549  and  _550
REMARK  202  A    between atoms: _549  and  _552
REMARK  203  A    between atoms: _552  and  _553
REMARK  204  A    between atoms: _553  and  _554
REMARK  205  A    between atoms: _554  and  _555
REMARK  206  A    between atoms: _564  and  _566
REMARK  207  A    between atoms: _566  and  _567
REMARK  208  A    between atoms: _566  and  _569
REMARK  209  A    between atoms: _569  and  _570
REMARK  210  A    between atoms: _575  and  _576
REMARK  211  A    between atoms: _578  and  _580
REMARK  212  A    between atoms: _580  and  _581
REMARK  213  A    between atoms: _580  and  _583
REMARK  214  A    between atoms: _583  and  _584
REMARK  215  A    between atoms: _584  and  _585
REMARK  216  A    between atoms: _588  and  _590
REMARK  217  A    between atoms: _590  and  _591
REMARK  218  A    between atoms: _590  and  _593
REMARK  219  A    between atoms: _593  and  _594
REMARK  220  A    between atoms: _594  and  _595
REMARK  221  A    between atoms: _595  and  _596
REMARK                            x       y       z     vdW  Elec       q    Type
REMARK                         _______ _______ _______ _____ _____    ______ ____
ROOT
ATOM      1  O   HOH     1      -1.831   4.759  -4.537  0.00  0.00    +0.000 OA
ENDROOT
TORSDOF 0
REMARK  Name = ../refined-set-2016/4zb8/4zb8_pocket.pdb
REMARK  221 active torsions:
REMARK  status: ('A' for Active; 'I' for Inactive)
REMARK    1  A    between atoms: _1  and  _3
REMARK    2  A    between atoms: _3  and  _4
REMARK    3  A    between atoms: _3  and  _6
REMARK    4  A    between atoms: _6  and  _7
REMARK    5  A    between atoms: _12  and  _13
REMARK    6  A    between atoms: _15  and  _17
REMARK    7  A    between atoms: _17  and  _18
REMARK    8  A    between atoms: _17  and  _20
REMARK    9  A    between atoms: _20  and  _21
REMARK   10  A    between atoms: _24  and  _26
REMARK   11  A    between atoms: _26  and  _27
REMARK   12  A    between atoms: _26  and  _29
REMARK   13  A    between atoms: _29  and  _30
REMARK   14  A    between atoms: _35  and  _37
REMARK   15  A    between atoms: _37  and  _38
REMARK   16  A    between atoms: _40  and  _42
REMARK   17  A    between atoms: _42  and  _43
REMARK   18  A    between atoms: _46  and  _47
REMARK   19  A    between atoms: _52  and  _54
REMARK   20  A    between atoms: _54  and  _55
REMARK   21  A    between atoms: _54  and  _57
REMARK   22  A    between atoms: _57  and  _58
REMARK   23  A    between atoms: _63  and  _65
REMARK   24  A    between atoms: _65  and  _66
REMARK   25  A    between atoms: _68  and  _70
REMARK   26  A    between atoms: _70  and  _71
REMARK   27  A    between atoms: _70  and  _73
REMARK   28  A    between atoms: _73  and  _74
REMARK   29  A    between atoms: _84  and  _86
REMARK   30  A    between atoms: _86  and  _87
REMARK   31  A    between atoms: _86  and  _89
REMARK   32  A    between atoms: _89  and  _90
REMARK   33  A    between atoms: _90  and  _91
REMARK   34  A    between atoms: _91  and  _92
REMARK   35  A    between atoms: _92  and  _93
REMARK   36  A    between atoms: _97  and  _99
REMARK   37  A    between atoms: _99  and  _100
REMARK   38  A    between atoms: _99  and  _102
REMARK   39  A    between atoms: _105  and  _107
REMARK   40  A    between atoms: _107  and  _108
REMARK   41  A    between atoms: _107  and  _110
REMARK   42  A    between atoms: _110  and  _111
REMARK   43  A    between atoms: _114  and  _116
REMARK   44  A    between atoms: _116  and  _117
REMARK   45  A    between atoms: _116  and  _119
REMARK   46  A    between atoms: _119  and  _120
REMARK   47  A    between atoms: _126  and  _128
REMARK   48  A    between atoms: _128  and  _129
REMARK   49  A    between atoms: _128  and  _131
REMARK   50  A    between atoms: _131  and  _132
REMARK   51  A    between atoms: _137  and  _139
REMARK   52  A    between atoms: _139  and  _140
REMARK   53  A    between atoms: _139  and  _142
REMARK   54  A    between atoms: _142  and  _143
REMARK   55  A    between atoms: _143  and  _144
REMARK   56  A    between atoms: _144  and  _145
REMARK   57  A    between atoms: _145  and  _146
REMARK   58  A    between atoms: _150  and  _152
REMARK   59  A    between atoms: _152  and  _153
REMARK   60  A    between atoms: _152  and  _155
REMARK   61  A    between atoms: _155  and  _156
REMARK   62  A    between atoms: _161  and  _162
REMARK   63  A    between atoms: _164  and  _166
REMARK   64  A    between atoms: _166  and  _167
REMARK   65  A    between atoms: _166  and  _169
REMARK   66  A    between atoms: _169  and  _170
REMARK   67  A    between atoms: _175  and  _177
REMARK   68  A    between atoms: _177  and  _178
REMARK   69  A    between atoms: _177  and  _180
REMARK   70  A    between atoms: _180  and  _181
REMARK   71  A    between atoms: _186  and  _188
REMARK   72  A    between atoms: _188  and  _189
REMARK   73  A    between atoms: _191  and  _193
REMARK   74  A    between atoms: _193  and  _194
REMARK   75  A    between atoms: _193  and  _196
REMARK   76  A    between atoms: _196  and  _197
REMARK   77  A    between atoms: _197  and  _198
REMARK   78  A    between atoms: _198  and  _199
REMARK   79  A    between atoms: _208  and  _210
REMARK   80  A    between atoms: _210  and  _211
REMARK   81  A    between atoms: _210  and  _213
REMARK   82  A    between atoms: _213  and  _214
REMARK   83  A    between atoms: _218  and  _219
REMARK   84  A    between atoms: _224  and  _226
REMARK   85  A    between atoms: _226  and  _227
REMARK   86  A    between atoms: _230  and  _232
REMARK   87  A    between atoms: _232  and  _233
REMARK   88  A    between atoms: _232  and  _235
REMARK   89  A    between atoms: _235  and  _236
REMARK   90  A    between atoms: _246  and  _248
REMARK   91  A    between atoms: _248  and  _249
REMARK   92  A    between atoms: _248  and  _251
REMARK   93  A    between atoms: _251  and  _252
REMARK   94  A    between atoms: _252  and  _253
REMARK   95  A    between atoms: _256  and  _258
REMARK   96  A    between atoms: _258  and  _259
REMARK   97  A    between atoms: _258  and  _261
REMARK   98  A    between atoms: _261  and  _262
REMARK   99  A    between atoms: _264  and  _266
REMARK  100  A    between atoms: _266  and  _267
REMARK  101  A    between atoms: _266  and  _269
REMARK  102  A    between atoms: _269  and  _270
REMARK  103  A    between atoms: _275  and  _277
REMARK  104  A    between atoms: _277  and  _278
REMARK  105  A    between atoms: _281  and  _283
REMARK  106  A    between atoms: _283  and  _284
REMARK  107  A    between atoms: _283  and  _286
REMARK  108  A    between atoms: _286  and  _287
REMARK  109  A    between atoms: _290  and  _292
REMARK  110  A    between atoms: _292  and  _293
REMARK  111  A    between atoms: _292  and  _295
REMARK  112  A    between atoms: _295  and  _296
REMARK  113  A    between atoms: _299  and  _301
REMARK  114  A    between atoms: _301  and  _302
REMARK  115  A    between atoms: _301  and  _304
REMARK  116  A    between atoms: _304  and  _305
REMARK  117  A    between atoms: _305  and  _306
REMARK  118  A    between atoms: _311  and  _313
REMARK  119  A    between atoms: _313  and  _314
REMARK  120  A    between atoms: _317  and  _319
REMARK  121  A    between atoms: _319  and  _320
REMARK  122  A    between atoms: _319  and  _322
REMARK  123  A    between atoms: _322  and  _323
REMARK  124  A    between atoms: _325  and  _327
REMARK  125  A    between atoms: _327  and  _328
REMARK  126  A    between atoms: _330  and  _332
REMARK  127  A    between atoms: _332  and  _333
REMARK  128  A    between atoms: _332  and  _335
REMARK  129  A    between atoms: _335  and  _336
REMARK  130  A    between atoms: _336  and  _337
REMARK  131  A    between atoms: _342  and  _344
REMARK  132  A    between atoms: _344  and  _345
REMARK  133  A    between atoms: _348  and  _349
REMARK  134  A    between atoms: _354  and  _356
REMARK  135  A    between atoms: _356  and  _357
REMARK  136  A    between atoms: _356  and  _359
REMARK  137  A    between atoms: _359  and  _360
REMARK  138  A    between atoms: _365  and  _366
REMARK  139  A    between atoms: _368  and  _370
REMARK  140  A    between atoms: _370  and  _371
REMARK  141  A    between atoms: _370  and  _373
REMARK  142  A    between atoms: _373  and  _374
REMARK  143  A    between atoms: _379  and  _380
REMARK  144  A    between atoms: _382  and  _384
REMARK  145  A    between atoms: _384  and  _385
REMARK  146  A    between atoms: _387  and  _389
REMARK  147  A    between atoms: _389  and  _390
REMARK  148  A    between atoms: _389  and  _392
REMARK  149  A    between atoms: _392  and  _393
REMARK  150  A    between atoms: _393  and  _394
REMARK  151  A    between atoms: _399  and  _401
REMARK  152  A    between atoms: _401  and  _402
REMARK  153  A    between atoms: _405  and  _407
REMARK  154  A    between atoms: _407  and  _408
REMARK  155  A    between atoms: _411  and  _413
REMARK  156  A    between atoms: _413  and  _414
REMARK  157  A    between atoms: _413  and  _416
REMARK  158  A    between atoms: _416  and  _417
REMARK  159  A    between atoms: _427  and  _429
REMARK  160  A    between atoms: _429  and  _430
REMARK  161  A    between atoms: _429  and  _432
REMARK  162  A    between atoms: _432  and  _433
REMARK  163  A    between atoms: _439  and  _441
REMARK  164  A    between atoms: _441  and  _442
REMARK  165  A    between atoms: _441  and  _444
REMARK  166  A    between atoms: _444  and  _445
REMARK  167  A    between atoms: _450  and  _451
REMARK  168  A    between atoms: _453  and  _455
REMARK  169  A    between atoms: _455  and  _456
REMARK  170  A    between atoms: _455  and  _458
REMARK  171  A    between atoms: _458  and  _459
REMARK  172  A    between atoms: _469  and  _471
REMARK  173  A    between atoms: _471  and  _472
REMARK  174  A    between atoms: _471  and  _474
REMARK  175  A    between atoms: _474  and  _475
REMARK  176  A    between atoms: _480  and  _481
REMARK  177  A    between atoms: _483  and  _485
REMARK  178  A    between atoms: _485  and  _486
REMARK  179  A    between atoms: _485  and  _488
REMARK  180  A    between atoms: _488  and  _489
REMARK  181  A    between atoms: _495  and  _497
REMARK  182  A    between atoms: _497  and  _498
REMARK  183  A    between atoms: _501  and  _503
REMARK  184  A    between atoms: _503  and  _504
REMARK  185  A    between atoms: _503  and  _506
REMARK  186  A    between atoms: _506  and  _507
REMARK  187  A    between atoms: _509  and  _511
REMARK  188  A    between atoms: _511  and  _512
REMARK  189  A    between atoms: _514  and  _516
REMARK  190  A    between atoms: _516  and  _517
REMARK  191  A    between atoms: _516  and  _519
REMARK  192  A    between atoms: _519  and  _520
REMARK  193  A    between atoms: _520  and  _521
REMARK  194  A    between atoms: _527  and  _528
REMARK  195  A    between atoms: _533  and  _535
REMARK  196  A    between atoms: _535  and  _536
REMARK  197  A    between atoms: _535  and  _538
REMARK  198  A    between atoms: _538  and  _539
REMARK  199  A    between atoms: _544  and  _545
REMARK  200  A    between atoms: _547  and  _549
REMARK  201  A    between atoms: _549  and  _550
REMARK  202  A    between atoms: _549  and  _552
REMARK  203  A    between atoms: _552  and  _553
REMARK  204  A    between atoms: _553  and  _554
REMARK  205  A    between atoms: _554  and  _555
REMARK  206  A    between atoms: _564  and  _566
REMARK  207  A    between atoms: _566  and  _567
REMARK  208  A    between atoms: _566  and  _569
REMARK  209  A    between atoms: _569  and  _570
REMARK  210  A    between atoms: _575  and  _576
REMARK  211  A    between atoms: _578  and  _580
REMARK  212  A    between atoms: _580  and  _581
REMARK  213  A    between atoms: _580  and  _583
REMARK  214  A    between atoms: _583  and  _584
REMARK  215  A    between atoms: _584  and  _585
REMARK  216  A    between atoms: _588  and  _590
REMARK  217  A    between atoms: _590  and  _591
REMARK  218  A    between atoms: _590  and  _593
REMARK  219  A    between atoms: _593  and  _594
REMARK  220  A    between atoms: _594  and  _595
REMARK  221  A    between atoms: _595  and  _596
REMARK                            x       y       z     vdW  Elec       q    Type
REMARK                         _______ _______ _______ _____ _____    ______ ____
ROOT
ATOM      1  O   HOH     1      -0.426   3.911  -8.303  0.00  0.00    +0.000 OA
ENDROOT
TORSDOF 0
REMARK  Name = ../refined-set-2016/4zb8/4zb8_pocket.pdb
REMARK  221 active torsions:
REMARK  status: ('A' for Active; 'I' for Inactive)
REMARK    1  A    between atoms: _1  and  _3
REMARK    2  A    between atoms: _3  and  _4
REMARK    3  A    between atoms: _3  and  _6
REMARK    4  A    between atoms: _6  and  _7
REMARK    5  A    between atoms: _12  and  _13
REMARK    6  A    between atoms: _15  and  _17
REMARK    7  A    between atoms: _17  and  _18
REMARK    8  A    between atoms: _17  and  _20
REMARK    9  A    between atoms: _20  and  _21
REMARK   10  A    between atoms: _24  and  _26
REMARK   11  A    between atoms: _26  and  _27
REMARK   12  A    between atoms: _26  and  _29
REMARK   13  A    between atoms: _29  and  _30
REMARK   14  A    between atoms: _35  and  _37
REMARK   15  A    between atoms: _37  and  _38
REMARK   16  A    between atoms: _40  and  _42
REMARK   17  A    between atoms: _42  and  _43
REMARK   18  A    between atoms: _46  and  _47
REMARK   19  A    between atoms: _52  and  _54
REMARK   20  A    between atoms: _54  and  _55
REMARK   21  A    between atoms: _54  and  _57
REMARK   22  A    between atoms: _57  and  _58
REMARK   23  A    between atoms: _63  and  _65
REMARK   24  A    between atoms: _65  and  _66
REMARK   25  A    between atoms: _68  and  _70
REMARK   26  A    between atoms: _70  and  _71
REMARK   27  A    between atoms: _70  and  _73
REMARK   28  A    between atoms: _73  and  _74
REMARK   29  A    between atoms: _84  and  _86
REMARK   30  A    between atoms: _86  and  _87
REMARK   31  A    between atoms: _86  and  _89
REMARK   32  A    between atoms: _89  and  _90
REMARK   33  A    between atoms: _90  and  _91
REMARK   34  A    between atoms: _91  and  _92
REMARK   35  A    between atoms: _92  and  _93
REMARK   36  A    between atoms: _97  and  _99
REMARK   37  A    between atoms: _99  and  _100
REMARK   38  A    between atoms: _99  and  _102
REMARK   39  A    between atoms: _105  and  _107
REMARK   40  A    between atoms: _107  and  _108
REMARK   41  A    between atoms: _107  and  _110
REMARK   42  A    between atoms: _110  and  _111
REMARK   43  A    between atoms: _114  and  _116
REMARK   44  A    between atoms: _116  and  _117
REMARK   45  A    between atoms: _116  and  _119
REMARK   46  A    between atoms: _119  and  _120
REMARK   47  A    between atoms: _126  and  _128
REMARK   48  A    between atoms: _128  and  _129
REMARK   49  A    between atoms: _128  and  _131
REMARK   50  A    between atoms: _131  and  _132
REMARK   51  A    between atoms: _137  and  _139
REMARK   52  A    between atoms: _139  and  _140
REMARK   53  A    between atoms: _139  and  _142
REMARK   54  A    between atoms: _142  and  _143
REMARK   55  A    between atoms: _143  and  _144
REMARK   56  A    between atoms: _144  and  _145
REMARK   57  A    between atoms: _145  and  _146
REMARK   58  A    between atoms: _150  and  _152
REMARK   59  A    between atoms: _152  and  _153
REMARK   60  A    between atoms: _152  and  _155
REMARK   61  A    between atoms: _155  and  _156
REMARK   62  A    between atoms: _161  and  _162
REMARK   63  A    between atoms: _164  and  _166
REMARK   64  A    between atoms: _166  and  _167
REMARK   65  A    between atoms: _166  and  _169
REMARK   66  A    between atoms: _169  and  _170
REMARK   67  A    between atoms: _175  and  _177
REMARK   68  A    between atoms: _177  and  _178
REMARK   69  A    between atoms: _177  and  _180
REMARK   70  A    between atoms: _180  and  _181
REMARK   71  A    between atoms: _186  and  _188
REMARK   72  A    between atoms: _188  and  _189
REMARK   73  A    between atoms: _191  and  _193
REMARK   74  A    between atoms: _193  and  _194
REMARK   75  A    between atoms: _193  and  _196
REMARK   76  A    between atoms: _196  and  _197
REMARK   77  A    between atoms: _197  and  _198
REMARK   78  A    between atoms: _198  and  _199
REMARK   79  A    between atoms: _208  and  _210
REMARK   80  A    between atoms: _210  and  _211
REMARK   81  A    between atoms: _210  and  _213
REMARK   82  A    between atoms: _213  and  _214
REMARK   83  A    between atoms: _218  and  _219
REMARK   84  A    between atoms: _224  and  _226
REMARK   85  A    between atoms: _226  and  _227
REMARK   86  A    between atoms: _230  and  _232
REMARK   87  A    between atoms: _232  and  _233
REMARK   88  A    between atoms: _232  and  _235
REMARK   89  A    between atoms: _235  and  _236
REMARK   90  A    between atoms: _246  and  _248
REMARK   91  A    between atoms: _248  and  _249
REMARK   92  A    between atoms: _248  and  _251
REMARK   93  A    between atoms: _251  and  _252
REMARK   94  A    between atoms: _252  and  _253
REMARK   95  A    between atoms: _256  and  _258
REMARK   96  A    between atoms: _258  and  _259
REMARK   97  A    between atoms: _258  and  _261
REMARK   98  A    between atoms: _261  and  _262
REMARK   99  A    between atoms: _264  and  _266
REMARK  100  A    between atoms: _266  and  _267
REMARK  101  A    between atoms: _266  and  _269
REMARK  102  A    between atoms: _269  and  _270
REMARK  103  A    between atoms: _275  and  _277
REMARK  104  A    between atoms: _277  and  _278
REMARK  105  A    between atoms: _281  and  _283
REMARK  106  A    between atoms: _283  and  _284
REMARK  107  A    between atoms: _283  and  _286
REMARK  108  A    between atoms: _286  and  _287
REMARK  109  A    between atoms: _290  and  _292
REMARK  110  A    between atoms: _292  and  _293
REMARK  111  A    between atoms: _292  and  _295
REMARK  112  A    between atoms: _295  and  _296
REMARK  113  A    between atoms: _299  and  _301
REMARK  114  A    between atoms: _301  and  _302
REMARK  115  A    between atoms: _301  and  _304
REMARK  116  A    between atoms: _304  and  _305
REMARK  117  A    between atoms: _305  and  _306
REMARK  118  A    between atoms: _311  and  _313
REMARK  119  A    between atoms: _313  and  _314
REMARK  120  A    between atoms: _317  and  _319
REMARK  121  A    between atoms: _319  and  _320
REMARK  122  A    between atoms: _319  and  _322
REMARK  123  A    between atoms: _322  and  _323
REMARK  124  A    between atoms: _325  and  _327
REMARK  125  A    between atoms: _327  and  _328
REMARK  126  A    between atoms: _330  and  _332
REMARK  127  A    between atoms: _332  and  _333
REMARK  128  A    between atoms: _332  and  _335
REMARK  129  A    between atoms: _335  and  _336
REMARK  130  A    between atoms: _336  and  _337
REMARK  131  A    between atoms: _342  and  _344
REMARK  132  A    between atoms: _344  and  _345
REMARK  133  A    between atoms: _348  and  _349
REMARK  134  A    between atoms: _354  and  _356
REMARK  135  A    between atoms: _356  and  _357
REMARK  136  A    between atoms: _356  and  _359
REMARK  137  A    between atoms: _359  and  _360
REMARK  138  A    between atoms: _365  and  _366
REMARK  139  A    between atoms: _368  and  _370
REMARK  140  A    between atoms: _370  and  _371
REMARK  141  A    between atoms: _370  and  _373
REMARK  142  A    between atoms: _373  and  _374
REMARK  143  A    between atoms: _379  and  _380
REMARK  144  A    between atoms: _382  and  _384
REMARK  145  A    between atoms: _384  and  _385
REMARK  146  A    between atoms: _387  and  _389
REMARK  147  A    between atoms: _389  and  _390
REMARK  148  A    between atoms: _389  and  _392
REMARK  149  A    between atoms: _392  and  _393
REMARK  150  A    between atoms: _393  and  _394
REMARK  151  A    between atoms: _399  and  _401
REMARK  152  A    between atoms: _401  and  _402
REMARK  153  A    between atoms: _405  and  _407
REMARK  154  A    between atoms: _407  and  _408
REMARK  155  A    between atoms: _411  and  _413
REMARK  156  A    between atoms: _413  and  _414
REMARK  157  A    between atoms: _413  and  _416
REMARK  158  A    between atoms: _416  and  _417
REMARK  159  A    between atoms: _427  and  _429
REMARK  160  A    between atoms: _429  and  _430
REMARK  161  A    between atoms: _429  and  _432
REMARK  162  A    between atoms: _432  and  _433
REMARK  163  A    between atoms: _439  and  _441
REMARK  164  A    between atoms: _441  and  _442
REMARK  165  A    between atoms: _441  and  _444
REMARK  166  A    between atoms: _444  and  _445
REMARK  167  A    between atoms: _450  and  _451
REMARK  168  A    between atoms: _453  and  _455
REMARK  169  A    between atoms: _455  and  _456
REMARK  170  A    between atoms: _455  and  _458
REMARK  171  A    between atoms: _458  and  _459
REMARK  172  A    between atoms: _469  and  _471
REMARK  173  A    between atoms: _471  and  _472
REMARK  174  A    between atoms: _471  and  _474
REMARK  175  A    between atoms: _474  and  _475
REMARK  176  A    between atoms: _480  and  _481
REMARK  177  A    between atoms: _483  and  _485
REMARK  178  A    between atoms: _485  and  _486
REMARK  179  A    between atoms: _485  and  _488
REMARK  180  A    between atoms: _488  and  _489
REMARK  181  A    between atoms: _495  and  _497
REMARK  182  A    between atoms: _497  and  _498
REMARK  183  A    between atoms: _501  and  _503
REMARK  184  A    between atoms: _503  and  _504
REMARK  185  A    between atoms: _503  and  _506
REMARK  186  A    between atoms: _506  and  _507
REMARK  187  A    between atoms: _509  and  _511
REMARK  188  A    between atoms: _511  and  _512
REMARK  189  A    between atoms: _514  and  _516
REMARK  190  A    between atoms: _516  and  _517
REMARK  191  A    between atoms: _516  and  _519
REMARK  192  A    between atoms: _519  and  _520
REMARK  193  A    between atoms: _520  and  _521
REMARK  194  A    between atoms: _527  and  _528
REMARK  195  A    between atoms: _533  and  _535
REMARK  196  A    between atoms: _535  and  _536
REMARK  197  A    between atoms: _535  and  _538
REMARK  198  A    between atoms: _538  and  _539
REMARK  199  A    between atoms: _544  and  _545
REMARK  200  A    between atoms: _547  and  _549
REMARK  201  A    between atoms: _549  and  _550
REMARK  202  A    between atoms: _549  and  _552
REMARK  203  A    between atoms: _552  and  _553
REMARK  204  A    between atoms: _553  and  _554
REMARK  205  A    between atoms: _554  and  _555
REMARK  206  A    between atoms: _564  and  _566
REMARK  207  A    between atoms: _566  and  _567
REMARK  208  A    between atoms: _566  and  _569
REMARK  209  A    between atoms: _569  and  _570
REMARK  210  A    between atoms: _575  and  _576
REMARK  211  A    between atoms: _578  and  _580
REMARK  212  A    between atoms: _580  and  _581
REMARK  213  A    between atoms: _580  and  _583
REMARK  214  A    between atoms: _583  and  _584
REMARK  215  A    between atoms: _584  and  _585
REMARK  216  A    between atoms: _588  and  _590
REMARK  217  A    between atoms: _590  and  _591
REMARK  218  A    between atoms: _590  and  _593
REMARK  219  A    between atoms: _593  and  _594
REMARK  220  A    between atoms: _594  and  _595
REMARK  221  A    between atoms: _595  and  _596
REMARK                            x       y       z     vdW  Elec       q    Type
REMARK                         _______ _______ _______ _____ _____    ______ ____
ROOT
ATOM      1  O   HOH     1     -10.485   0.574  -7.198  0.00  0.00    +0.000 OA
ENDROOT
TORSDOF 0
REMARK  Name = ../refined-set-2016/4zb8/4zb8_pocket.pdb
REMARK  221 active torsions:
REMARK  status: ('A' for Active; 'I' for Inactive)
REMARK    1  A    between atoms: _1  and  _3
REMARK    2  A    between atoms: _3  and  _4
REMARK    3  A    between atoms: _3  and  _6
REMARK    4  A    between atoms: _6  and  _7
REMARK    5  A    between atoms: _12  and  _13
REMARK    6  A    between atoms: _15  and  _17
REMARK    7  A    between atoms: _17  and  _18
REMARK    8  A    between atoms: _17  and  _20
REMARK    9  A    between atoms: _20  and  _21
REMARK   10  A    between atoms: _24  and  _26
REMARK   11  A    between atoms: _26  and  _27
REMARK   12  A    between atoms: _26  and  _29
REMARK   13  A    between atoms: _29  and  _30
REMARK   14  A    between atoms: _35  and  _37
REMARK   15  A    between atoms: _37  and  _38
REMARK   16  A    between atoms: _40  and  _42
REMARK   17  A    between atoms: _42  and  _43
REMARK   18  A    between atoms: _46  and  _47
REMARK   19  A    between atoms: _52  and  _54
REMARK   20  A    between atoms: _54  and  _55
REMARK   21  A    between atoms: _54  and  _57
REMARK   22  A    between atoms: _57  and  _58
REMARK   23  A    between atoms: _63  and  _65
REMARK   24  A    between atoms: _65  and  _66
REMARK   25  A    between atoms: _68  and  _70
REMARK   26  A    between atoms: _70  and  _71
REMARK   27  A    between atoms: _70  and  _73
REMARK   28  A    between atoms: _73  and  _74
REMARK   29  A    between atoms: _84  and  _86
REMARK   30  A    between atoms: _86  and  _87
REMARK   31  A    between atoms: _86  and  _89
REMARK   32  A    between atoms: _89  and  _90
REMARK   33  A    between atoms: _90  and  _91
REMARK   34  A    between atoms: _91  and  _92
REMARK   35  A    between atoms: _92  and  _93
REMARK   36  A    between atoms: _97  and  _99
REMARK   37  A    between atoms: _99  and  _100
REMARK   38  A    between atoms: _99  and  _102
REMARK   39  A    between atoms: _105  and  _107
REMARK   40  A    between atoms: _107  and  _108
REMARK   41  A    between atoms: _107  and  _110
REMARK   42  A    between atoms: _110  and  _111
REMARK   43  A    between atoms: _114  and  _116
REMARK   44  A    between atoms: _116  and  _117
REMARK   45  A    between atoms: _116  and  _119
REMARK   46  A    between atoms: _119  and  _120
REMARK   47  A    between atoms: _126  and  _128
REMARK   48  A    between atoms: _128  and  _129
REMARK   49  A    between atoms: _128  and  _131
REMARK   50  A    between atoms: _131  and  _132
REMARK   51  A    between atoms: _137  and  _139
REMARK   52  A    between atoms: _139  and  _140
REMARK   53  A    between atoms: _139  and  _142
REMARK   54  A    between atoms: _142  and  _143
REMARK   55  A    between atoms: _143  and  _144
REMARK   56  A    between atoms: _144  and  _145
REMARK   57  A    between atoms: _145  and  _146
REMARK   58  A    between atoms: _150  and  _152
REMARK   59  A    between atoms: _152  and  _153
REMARK   60  A    between atoms: _152  and  _155
REMARK   61  A    between atoms: _155  and  _156
REMARK   62  A    between atoms: _161  and  _162
REMARK   63  A    between atoms: _164  and  _166
REMARK   64  A    between atoms: _166  and  _167
REMARK   65  A    between atoms: _166  and  _169
REMARK   66  A    between atoms: _169  and  _170
REMARK   67  A    between atoms: _175  and  _177
REMARK   68  A    between atoms: _177  and  _178
REMARK   69  A    between atoms: _177  and  _180
REMARK   70  A    between atoms: _180  and  _181
REMARK   71  A    between atoms: _186  and  _188
REMARK   72  A    between atoms: _188  and  _189
REMARK   73  A    between atoms: _191  and  _193
REMARK   74  A    between atoms: _193  and  _194
REMARK   75  A    between atoms: _193  and  _196
REMARK   76  A    between atoms: _196  and  _197
REMARK   77  A    between atoms: _197  and  _198
REMARK   78  A    between atoms: _198  and  _199
REMARK   79  A    between atoms: _208  and  _210
REMARK   80  A    between atoms: _210  and  _211
REMARK   81  A    between atoms: _210  and  _213
REMARK   82  A    between atoms: _213  and  _214
REMARK   83  A    between atoms: _218  and  _219
REMARK   84  A    between atoms: _224  and  _226
REMARK   85  A    between atoms: _226  and  _227
REMARK   86  A    between atoms: _230  and  _232
REMARK   87  A    between atoms: _232  and  _233
REMARK   88  A    between atoms: _232  and  _235
REMARK   89  A    between atoms: _235  and  _236
REMARK   90  A    between atoms: _246  and  _248
REMARK   91  A    between atoms: _248  and  _249
REMARK   92  A    between atoms: _248  and  _251
REMARK   93  A    between atoms: _251  and  _252
REMARK   94  A    between atoms: _252  and  _253
REMARK   95  A    between atoms: _256  and  _258
REMARK   96  A    between atoms: _258  and  _259
REMARK   97  A    between atoms: _258  and  _261
REMARK   98  A    between atoms: _261  and  _262
REMARK   99  A    between atoms: _264  and  _266
REMARK  100  A    between atoms: _266  and  _267
REMARK  101  A    between atoms: _266  and  _269
REMARK  102  A    between atoms: _269  and  _270
REMARK  103  A    between atoms: _275  and  _277
REMARK  104  A    between atoms: _277  and  _278
REMARK  105  A    between atoms: _281  and  _283
REMARK  106  A    between atoms: _283  and  _284
REMARK  107  A    between atoms: _283  and  _286
REMARK  108  A    between atoms: _286  and  _287
REMARK  109  A    between atoms: _290  and  _292
REMARK  110  A    between atoms: _292  and  _293
REMARK  111  A    between atoms: _292  and  _295
REMARK  112  A    between atoms: _295  and  _296
REMARK  113  A    between atoms: _299  and  _301
REMARK  114  A    between atoms: _301  and  _302
REMARK  115  A    between atoms: _301  and  _304
REMARK  116  A    between atoms: _304  and  _305
REMARK  117  A    between atoms: _305  and  _306
REMARK  118  A    between atoms: _311  and  _313
REMARK  119  A    between atoms: _313  and  _314
REMARK  120  A    between atoms: _317  and  _319
REMARK  121  A    between atoms: _319  and  _320
REMARK  122  A    between atoms: _319  and  _322
REMARK  123  A    between atoms: _322  and  _323
REMARK  124  A    between atoms: _325  and  _327
REMARK  125  A    between atoms: _327  and  _328
REMARK  126  A    between atoms: _330  and  _332
REMARK  127  A    between atoms: _332  and  _333
REMARK  128  A    between atoms: _332  and  _335
REMARK  129  A    between atoms: _335  and  _336
REMARK  130  A    between atoms: _336  and  _337
REMARK  131  A    between atoms: _342  and  _344
REMARK  132  A    between atoms: _344  and  _345
REMARK  133  A    between atoms: _348  and  _349
REMARK  134  A    between atoms: _354  and  _356
REMARK  135  A    between atoms: _356  and  _357
REMARK  136  A    between atoms: _356  and  _359
REMARK  137  A    between atoms: _359  and  _360
REMARK  138  A    between atoms: _365  and  _366
REMARK  139  A    between atoms: _368  and  _370
REMARK  140  A    between atoms: _370  and  _371
REMARK  141  A    between atoms: _370  and  _373
REMARK  142  A    between atoms: _373  and  _374
REMARK  143  A    between atoms: _379  and  _380
REMARK  144  A    between atoms: _382  and  _384
REMARK  145  A    between atoms: _384  and  _385
REMARK  146  A    between atoms: _387  and  _389
REMARK  147  A    between atoms: _389  and  _390
REMARK  148  A    between atoms: _389  and  _392
REMARK  149  A    between atoms: _392  and  _393
REMARK  150  A    between atoms: _393  and  _394
REMARK  151  A    between atoms: _399  and  _401
REMARK  152  A    between atoms: _401  and  _402
REMARK  153  A    between atoms: _405  and  _407
REMARK  154  A    between atoms: _407  and  _408
REMARK  155  A    between atoms: _411  and  _413
REMARK  156  A    between atoms: _413  and  _414
REMARK  157  A    between atoms: _413  and  _416
REMARK  158  A    between atoms: _416  and  _417
REMARK  159  A    between atoms: _427  and  _429
REMARK  160  A    between atoms: _429  and  _430
REMARK  161  A    between atoms: _429  and  _432
REMARK  162  A    between atoms: _432  and  _433
REMARK  163  A    between atoms: _439  and  _441
REMARK  164  A    between atoms: _441  and  _442
REMARK  165  A    between atoms: _441  and  _444
REMARK  166  A    between atoms: _444  and  _445
REMARK  167  A    between atoms: _450  and  _451
REMARK  168  A    between atoms: _453  and  _455
REMARK  169  A    between atoms: _455  and  _456
REMARK  170  A    between atoms: _455  and  _458
REMARK  171  A    between atoms: _458  and  _459
REMARK  172  A    between atoms: _469  and  _471
REMARK  173  A    between atoms: _471  and  _472
REMARK  174  A    between atoms: _471  and  _474
REMARK  175  A    between atoms: _474  and  _475
REMARK  176  A    between atoms: _480  and  _481
REMARK  177  A    between atoms: _483  and  _485
REMARK  178  A    between atoms: _485  and  _486
REMARK  179  A    between atoms: _485  and  _488
REMARK  180  A    between atoms: _488  and  _489
REMARK  181  A    between atoms: _495  and  _497
REMARK  182  A    between atoms: _497  and  _498
REMARK  183  A    between atoms: _501  and  _503
REMARK  184  A    between atoms: _503  and  _504
REMARK  185  A    between atoms: _503  and  _506
REMARK  186  A    between atoms: _506  and  _507
REMARK  187  A    between atoms: _509  and  _511
REMARK  188  A    between atoms: _511  and  _512
REMARK  189  A    between atoms: _514  and  _516
REMARK  190  A    between atoms: _516  and  _517
REMARK  191  A    between atoms: _516  and  _519
REMARK  192  A    between atoms: _519  and  _520
REMARK  193  A    between atoms: _520  and  _521
REMARK  194  A    between atoms: _527  and  _528
REMARK  195  A    between atoms: _533  and  _535
REMARK  196  A    between atoms: _535  and  _536
REMARK  197  A    between atoms: _535  and  _538
REMARK  198  A    between atoms: _538  and  _539
REMARK  199  A    between atoms: _544  and  _545
REMARK  200  A    between atoms: _547  and  _549
REMARK  201  A    between atoms: _549  and  _550
REMARK  202  A    between atoms: _549  and  _552
REMARK  203  A    between atoms: _552  and  _553
REMARK  204  A    between atoms: _553  and  _554
REMARK  205  A    between atoms: _554  and  _555
REMARK  206  A    between atoms: _564  and  _566
REMARK  207  A    between atoms: _566  and  _567
REMARK  208  A    between atoms: _566  and  _569
REMARK  209  A    between atoms: _569  and  _570
REMARK  210  A    between atoms: _575  and  _576
REMARK  211  A    between atoms: _578  and  _580
REMARK  212  A    between atoms: _580  and  _581
REMARK  213  A    between atoms: _580  and  _583
REMARK  214  A    between atoms: _583  and  _584
REMARK  215  A    between atoms: _584  and  _585
REMARK  216  A    between atoms: _588  and  _590
REMARK  217  A    between atoms: _590  and  _591
REMARK  218  A    between atoms: _590  and  _593
REMARK  219  A    between atoms: _593  and  _594
REMARK  220  A    between atoms: _594  and  _595
REMARK  221  A    between atoms: _595  and  _596
REMARK                            x       y       z     vdW  Elec       q    Type
REMARK                         _______ _______ _______ _____ _____    ______ ____
ROOT
ATOM      1  O   HOH     1      -8.068   3.924  -2.616  0.00  0.00    +0.000 OA
ENDROOT
TORSDOF 0
REMARK  Name = ../refined-set-2016/4zb8/4zb8_pocket.pdb
REMARK  221 active torsions:
REMARK  status: ('A' for Active; 'I' for Inactive)
REMARK    1  A    between atoms: _1  and  _3
REMARK    2  A    between atoms: _3  and  _4
REMARK    3  A    between atoms: _3  and  _6
REMARK    4  A    between atoms: _6  and  _7
REMARK    5  A    between atoms: _12  and  _13
REMARK    6  A    between atoms: _15  and  _17
REMARK    7  A    between atoms: _17  and  _18
REMARK    8  A    between atoms: _17  and  _20
REMARK    9  A    between atoms: _20  and  _21
REMARK   10  A    between atoms: _24  and  _26
REMARK   11  A    between atoms: _26  and  _27
REMARK   12  A    between atoms: _26  and  _29
REMARK   13  A    between atoms: _29  and  _30
REMARK   14  A    between atoms: _35  and  _37
REMARK   15  A    between atoms: _37  and  _38
REMARK   16  A    between atoms: _40  and  _42
REMARK   17  A    between atoms: _42  and  _43
REMARK   18  A    between atoms: _46  and  _47
REMARK   19  A    between atoms: _52  and  _54
REMARK   20  A    between atoms: _54  and  _55
REMARK   21  A    between atoms: _54  and  _57
REMARK   22  A    between atoms: _57  and  _58
REMARK   23  A    between atoms: _63  and  _65
REMARK   24  A    between atoms: _65  and  _66
REMARK   25  A    between atoms: _68  and  _70
REMARK   26  A    between atoms: _70  and  _71
REMARK   27  A    between atoms: _70  and  _73
REMARK   28  A    between atoms: _73  and  _74
REMARK   29  A    between atoms: _84  and  _86
REMARK   30  A    between atoms: _86  and  _87
REMARK   31  A    between atoms: _86  and  _89
REMARK   32  A    between atoms: _89  and  _90
REMARK   33  A    between atoms: _90  and  _91
REMARK   34  A    between atoms: _91  and  _92
REMARK   35  A    between atoms: _92  and  _93
REMARK   36  A    between atoms: _97  and  _99
REMARK   37  A    between atoms: _99  and  _100
REMARK   38  A    between atoms: _99  and  _102
REMARK   39  A    between atoms: _105  and  _107
REMARK   40  A    between atoms: _107  and  _108
REMARK   41  A    between atoms: _107  and  _110
REMARK   42  A    between atoms: _110  and  _111
REMARK   43  A    between atoms: _114  and  _116
REMARK   44  A    between atoms: _116  and  _117
REMARK   45  A    between atoms: _116  and  _119
REMARK   46  A    between atoms: _119  and  _120
REMARK   47  A    between atoms: _126  and  _128
REMARK   48  A    between atoms: _128  and  _129
REMARK   49  A    between atoms: _128  and  _131
REMARK   50  A    between atoms: _131  and  _132
REMARK   51  A    between atoms: _137  and  _139
REMARK   52  A    between atoms: _139  and  _140
REMARK   53  A    between atoms: _139  and  _142
REMARK   54  A    between atoms: _142  and  _143
REMARK   55  A    between atoms: _143  and  _144
REMARK   56  A    between atoms: _144  and  _145
REMARK   57  A    between atoms: _145  and  _146
REMARK   58  A    between atoms: _150  and  _152
REMARK   59  A    between atoms: _152  and  _153
REMARK   60  A    between atoms: _152  and  _155
REMARK   61  A    between atoms: _155  and  _156
REMARK   62  A    between atoms: _161  and  _162
REMARK   63  A    between atoms: _164  and  _166
REMARK   64  A    between atoms: _166  and  _167
REMARK   65  A    between atoms: _166  and  _169
REMARK   66  A    between atoms: _169  and  _170
REMARK   67  A    between atoms: _175  and  _177
REMARK   68  A    between atoms: _177  and  _178
REMARK   69  A    between atoms: _177  and  _180
REMARK   70  A    between atoms: _180  and  _181
REMARK   71  A    between atoms: _186  and  _188
REMARK   72  A    between atoms: _188  and  _189
REMARK   73  A    between atoms: _191  and  _193
REMARK   74  A    between atoms: _193  and  _194
REMARK   75  A    between atoms: _193  and  _196
REMARK   76  A    between atoms: _196  and  _197
REMARK   77  A    between atoms: _197  and  _198
REMARK   78  A    between atoms: _198  and  _199
REMARK   79  A    between atoms: _208  and  _210
REMARK   80  A    between atoms: _210  and  _211
REMARK   81  A    between atoms: _210  and  _213
REMARK   82  A    between atoms: _213  and  _214
REMARK   83  A    between atoms: _218  and  _219
REMARK   84  A    between atoms: _224  and  _226
REMARK   85  A    between atoms: _226  and  _227
REMARK   86  A    between atoms: _230  and  _232
REMARK   87  A    between atoms: _232  and  _233
REMARK   88  A    between atoms: _232  and  _235
REMARK   89  A    between atoms: _235  and  _236
REMARK   90  A    between atoms: _246  and  _248
REMARK   91  A    between atoms: _248  and  _249
REMARK   92  A    between atoms: _248  and  _251
REMARK   93  A    between atoms: _251  and  _252
REMARK   94  A    between atoms: _252  and  _253
REMARK   95  A    between atoms: _256  and  _258
REMARK   96  A    between atoms: _258  and  _259
REMARK   97  A    between atoms: _258  and  _261
REMARK   98  A    between atoms: _261  and  _262
REMARK   99  A    between atoms: _264  and  _266
REMARK  100  A    between atoms: _266  and  _267
REMARK  101  A    between atoms: _266  and  _269
REMARK  102  A    between atoms: _269  and  _270
REMARK  103  A    between atoms: _275  and  _277
REMARK  104  A    between atoms: _277  and  _278
REMARK  105  A    between atoms: _281  and  _283
REMARK  106  A    between atoms: _283  and  _284
REMARK  107  A    between atoms: _283  and  _286
REMARK  108  A    between atoms: _286  and  _287
REMARK  109  A    between atoms: _290  and  _292
REMARK  110  A    between atoms: _292  and  _293
REMARK  111  A    between atoms: _292  and  _295
REMARK  112  A    between atoms: _295  and  _296
REMARK  113  A    between atoms: _299  and  _301
REMARK  114  A    between atoms: _301  and  _302
REMARK  115  A    between atoms: _301  and  _304
REMARK  116  A    between atoms: _304  and  _305
REMARK  117  A    between atoms: _305  and  _306
REMARK  118  A    between atoms: _311  and  _313
REMARK  119  A    between atoms: _313  and  _314
REMARK  120  A    between atoms: _317  and  _319
REMARK  121  A    between atoms: _319  and  _320
REMARK  122  A    between atoms: _319  and  _322
REMARK  123  A    between atoms: _322  and  _323
REMARK  124  A    between atoms: _325  and  _327
REMARK  125  A    between atoms: _327  and  _328
REMARK  126  A    between atoms: _330  and  _332
REMARK  127  A    between atoms: _332  and  _333
REMARK  128  A    between atoms: _332  and  _335
REMARK  129  A    between atoms: _335  and  _336
REMARK  130  A    between atoms: _336  and  _337
REMARK  131  A    between atoms: _342  and  _344
REMARK  132  A    between atoms: _344  and  _345
REMARK  133  A    between atoms: _348  and  _349
REMARK  134  A    between atoms: _354  and  _356
REMARK  135  A    between atoms: _356  and  _357
REMARK  136  A    between atoms: _356  and  _359
REMARK  137  A    between atoms: _359  and  _360
REMARK  138  A    between atoms: _365  and  _366
REMARK  139  A    between atoms: _368  and  _370
REMARK  140  A    between atoms: _370  and  _371
REMARK  141  A    between atoms: _370  and  _373
REMARK  142  A    between atoms: _373  and  _374
REMARK  143  A    between atoms: _379  and  _380
REMARK  144  A    between atoms: _382  and  _384
REMARK  145  A    between atoms: _384  and  _385
REMARK  146  A    between atoms: _387  and  _389
REMARK  147  A    between atoms: _389  and  _390
REMARK  148  A    between atoms: _389  and  _392
REMARK  149  A    between atoms: _392  and  _393
REMARK  150  A    between atoms: _393  and  _394
REMARK  151  A    between atoms: _399  and  _401
REMARK  152  A    between atoms: _401  and  _402
REMARK  153  A    between atoms: _405  and  _407
REMARK  154  A    between atoms: _407  and  _408
REMARK  155  A    between atoms: _411  and  _413
REMARK  156  A    between atoms: _413  and  _414
REMARK  157  A    between atoms: _413  and  _416
REMARK  158  A    between atoms: _416  and  _417
REMARK  159  A    between atoms: _427  and  _429
REMARK  160  A    between atoms: _429  and  _430
REMARK  161  A    between atoms: _429  and  _432
REMARK  162  A    between atoms: _432  and  _433
REMARK  163  A    between atoms: _439  and  _441
REMARK  164  A    between atoms: _441  and  _442
REMARK  165  A    between atoms: _441  and  _444
REMARK  166  A    between atoms: _444  and  _445
REMARK  167  A    between atoms: _450  and  _451
REMARK  168  A    between atoms: _453  and  _455
REMARK  169  A    between atoms: _455  and  _456
REMARK  170  A    between atoms: _455  and  _458
REMARK  171  A    between atoms: _458  and  _459
REMARK  172  A    between atoms: _469  and  _471
REMARK  173  A    between atoms: _471  and  _472
REMARK  174  A    between atoms: _471  and  _474
REMARK  175  A    between atoms: _474  and  _475
REMARK  176  A    between atoms: _480  and  _481
REMARK  177  A    between atoms: _483  and  _485
REMARK  178  A    between atoms: _485  and  _486
REMARK  179  A    between atoms: _485  and  _488
REMARK  180  A    between atoms: _488  and  _489
REMARK  181  A    between atoms: _495  and  _497
REMARK  182  A    between atoms: _497  and  _498
REMARK  183  A    between atoms: _501  and  _503
REMARK  184  A    between atoms: _503  and  _504
REMARK  185  A    between atoms: _503  and  _506
REMARK  186  A    between atoms: _506  and  _507
REMARK  187  A    between atoms: _509  and  _511
REMARK  188  A    between atoms: _511  and  _512
REMARK  189  A    between atoms: _514  and  _516
REMARK  190  A    between atoms: _516  and  _517
REMARK  191  A    between atoms: _516  and  _519
REMARK  192  A    between atoms: _519  and  _520
REMARK  193  A    between atoms: _520  and  _521
REMARK  194  A    between atoms: _527  and  _528
REMARK  195  A    between atoms: _533  and  _535
REMARK  196  A    between atoms: _535  and  _536
REMARK  197  A    between atoms: _535  and  _538
REMARK  198  A    between atoms: _538  and  _539
REMARK  199  A    between atoms: _544  and  _545
REMARK  200  A    between atoms: _547  and  _549
REMARK  201  A    between atoms: _549  and  _550
REMARK  202  A    between atoms: _549  and  _552
REMARK  203  A    between atoms: _552  and  _553
REMARK  204  A    between atoms: _553  and  _554
REMARK  205  A    between atoms: _554  and  _555
REMARK  206  A    between atoms: _564  and  _566
REMARK  207  A    between atoms: _566  and  _567
REMARK  208  A    between atoms: _566  and  _569
REMARK  209  A    between atoms: _569  and  _570
REMARK  210  A    between atoms: _575  and  _576
REMARK  211  A    between atoms: _578  and  _580
REMARK  212  A    between atoms: _580  and  _581
REMARK  213  A    between atoms: _580  and  _583
REMARK  214  A    between atoms: _583  and  _584
REMARK  215  A    between atoms: _584  and  _585
REMARK  216  A    between atoms: _588  and  _590
REMARK  217  A    between atoms: _590  and  _591
REMARK  218  A    between atoms: _590  and  _593
REMARK  219  A    between atoms: _593  and  _594
REMARK  220  A    between atoms: _594  and  _595
REMARK  221  A    between atoms: _595  and  _596
REMARK                            x       y       z     vdW  Elec       q    Type
REMARK                         _______ _______ _______ _____ _____    ______ ____
ROOT
ATOM      1  O   HOH     1     -11.647   9.633  -3.460  0.00  0.00    +0.000 OA
ENDROOT
TORSDOF 0
REMARK  Name = ../refined-set-2016/4zb8/4zb8_pocket.pdb
REMARK  221 active torsions:
REMARK  status: ('A' for Active; 'I' for Inactive)
REMARK    1  A    between atoms: _1  and  _3
REMARK    2  A    between atoms: _3  and  _4
REMARK    3  A    between atoms: _3  and  _6
REMARK    4  A    between atoms: _6  and  _7
REMARK    5  A    between atoms: _12  and  _13
REMARK    6  A    between atoms: _15  and  _17
REMARK    7  A    between atoms: _17  and  _18
REMARK    8  A    between atoms: _17  and  _20
REMARK    9  A    between atoms: _20  and  _21
REMARK   10  A    between atoms: _24  and  _26
REMARK   11  A    between atoms: _26  and  _27
REMARK   12  A    between atoms: _26  and  _29
REMARK   13  A    between atoms: _29  and  _30
REMARK   14  A    between atoms: _35  and  _37
REMARK   15  A    between atoms: _37  and  _38
REMARK   16  A    between atoms: _40  and  _42
REMARK   17  A    between atoms: _42  and  _43
REMARK   18  A    between atoms: _46  and  _47
REMARK   19  A    between atoms: _52  and  _54
REMARK   20  A    between atoms: _54  and  _55
REMARK   21  A    between atoms: _54  and  _57
REMARK   22  A    between atoms: _57  and  _58
REMARK   23  A    between atoms: _63  and  _65
REMARK   24  A    between atoms: _65  and  _66
REMARK   25  A    between atoms: _68  and  _70
REMARK   26  A    between atoms: _70  and  _71
REMARK   27  A    between atoms: _70  and  _73
REMARK   28  A    between atoms: _73  and  _74
REMARK   29  A    between atoms: _84  and  _86
REMARK   30  A    between atoms: _86  and  _87
REMARK   31  A    between atoms: _86  and  _89
REMARK   32  A    between atoms: _89  and  _90
REMARK   33  A    between atoms: _90  and  _91
REMARK   34  A    between atoms: _91  and  _92
REMARK   35  A    between atoms: _92  and  _93
REMARK   36  A    between atoms: _97  and  _99
REMARK   37  A    between atoms: _99  and  _100
REMARK   38  A    between atoms: _99  and  _102
REMARK   39  A    between atoms: _105  and  _107
REMARK   40  A    between atoms: _107  and  _108
REMARK   41  A    between atoms: _107  and  _110
REMARK   42  A    between atoms: _110  and  _111
REMARK   43  A    between atoms: _114  and  _116
REMARK   44  A    between atoms: _116  and  _117
REMARK   45  A    between atoms: _116  and  _119
REMARK   46  A    between atoms: _119  and  _120
REMARK   47  A    between atoms: _126  and  _128
REMARK   48  A    between atoms: _128  and  _129
REMARK   49  A    between atoms: _128  and  _131
REMARK   50  A    between atoms: _131  and  _132
REMARK   51  A    between atoms: _137  and  _139
REMARK   52  A    between atoms: _139  and  _140
REMARK   53  A    between atoms: _139  and  _142
REMARK   54  A    between atoms: _142  and  _143
REMARK   55  A    between atoms: _143  and  _144
REMARK   56  A    between atoms: _144  and  _145
REMARK   57  A    between atoms: _145  and  _146
REMARK   58  A    between atoms: _150  and  _152
REMARK   59  A    between atoms: _152  and  _153
REMARK   60  A    between atoms: _152  and  _155
REMARK   61  A    between atoms: _155  and  _156
REMARK   62  A    between atoms: _161  and  _162
REMARK   63  A    between atoms: _164  and  _166
REMARK   64  A    between atoms: _166  and  _167
REMARK   65  A    between atoms: _166  and  _169
REMARK   66  A    between atoms: _169  and  _170
REMARK   67  A    between atoms: _175  and  _177
REMARK   68  A    between atoms: _177  and  _178
REMARK   69  A    between atoms: _177  and  _180
REMARK   70  A    between atoms: _180  and  _181
REMARK   71  A    between atoms: _186  and  _188
REMARK   72  A    between atoms: _188  and  _189
REMARK   73  A    between atoms: _191  and  _193
REMARK   74  A    between atoms: _193  and  _194
REMARK   75  A    between atoms: _193  and  _196
REMARK   76  A    between atoms: _196  and  _197
REMARK   77  A    between atoms: _197  and  _198
REMARK   78  A    between atoms: _198  and  _199
REMARK   79  A    between atoms: _208  and  _210
REMARK   80  A    between atoms: _210  and  _211
REMARK   81  A    between atoms: _210  and  _213
REMARK   82  A    between atoms: _213  and  _214
REMARK   83  A    between atoms: _218  and  _219
REMARK   84  A    between atoms: _224  and  _226
REMARK   85  A    between atoms: _226  and  _227
REMARK   86  A    between atoms: _230  and  _232
REMARK   87  A    between atoms: _232  and  _233
REMARK   88  A    between atoms: _232  and  _235
REMARK   89  A    between atoms: _235  and  _236
REMARK   90  A    between atoms: _246  and  _248
REMARK   91  A    between atoms: _248  and  _249
REMARK   92  A    between atoms: _248  and  _251
REMARK   93  A    between atoms: _251  and  _252
REMARK   94  A    between atoms: _252  and  _253
REMARK   95  A    between atoms: _256  and  _258
REMARK   96  A    between atoms: _258  and  _259
REMARK   97  A    between atoms: _258  and  _261
REMARK   98  A    between atoms: _261  and  _262
REMARK   99  A    between atoms: _264  and  _266
REMARK  100  A    between atoms: _266  and  _267
REMARK  101  A    between atoms: _266  and  _269
REMARK  102  A    between atoms: _269  and  _270
REMARK  103  A    between atoms: _275  and  _277
REMARK  104  A    between atoms: _277  and  _278
REMARK  105  A    between atoms: _281  and  _283
REMARK  106  A    between atoms: _283  and  _284
REMARK  107  A    between atoms: _283  and  _286
REMARK  108  A    between atoms: _286  and  _287
REMARK  109  A    between atoms: _290  and  _292
REMARK  110  A    between atoms: _292  and  _293
REMARK  111  A    between atoms: _292  and  _295
REMARK  112  A    between atoms: _295  and  _296
REMARK  113  A    between atoms: _299  and  _301
REMARK  114  A    between atoms: _301  and  _302
REMARK  115  A    between atoms: _301  and  _304
REMARK  116  A    between atoms: _304  and  _305
REMARK  117  A    between atoms: _305  and  _306
REMARK  118  A    between atoms: _311  and  _313
REMARK  119  A    between atoms: _313  and  _314
REMARK  120  A    between atoms: _317  and  _319
REMARK  121  A    between atoms: _319  and  _320
REMARK  122  A    between atoms: _319  and  _322
REMARK  123  A    between atoms: _322  and  _323
REMARK  124  A    between atoms: _325  and  _327
REMARK  125  A    between atoms: _327  and  _328
REMARK  126  A    between atoms: _330  and  _332
REMARK  127  A    between atoms: _332  and  _333
REMARK  128  A    between atoms: _332  and  _335
REMARK  129  A    between atoms: _335  and  _336
REMARK  130  A    between atoms: _336  and  _337
REMARK  131  A    between atoms: _342  and  _344
REMARK  132  A    between atoms: _344  and  _345
REMARK  133  A    between atoms: _348  and  _349
REMARK  134  A    between atoms: _354  and  _356
REMARK  135  A    between atoms: _356  and  _357
REMARK  136  A    between atoms: _356  and  _359
REMARK  137  A    between atoms: _359  and  _360
REMARK  138  A    between atoms: _365  and  _366
REMARK  139  A    between atoms: _368  and  _370
REMARK  140  A    between atoms: _370  and  _371
REMARK  141  A    between atoms: _370  and  _373
REMARK  142  A    between atoms: _373  and  _374
REMARK  143  A    between atoms: _379  and  _380
REMARK  144  A    between atoms: _382  and  _384
REMARK  145  A    between atoms: _384  and  _385
REMARK  146  A    between atoms: _387  and  _389
REMARK  147  A    between atoms: _389  and  _390
REMARK  148  A    between atoms: _389  and  _392
REMARK  149  A    between atoms: _392  and  _393
REMARK  150  A    between atoms: _393  and  _394
REMARK  151  A    between atoms: _399  and  _401
REMARK  152  A    between atoms: _401  and  _402
REMARK  153  A    between atoms: _405  and  _407
REMARK  154  A    between atoms: _407  and  _408
REMARK  155  A    between atoms: _411  and  _413
REMARK  156  A    between atoms: _413  and  _414
REMARK  157  A    between atoms: _413  and  _416
REMARK  158  A    between atoms: _416  and  _417
REMARK  159  A    between atoms: _427  and  _429
REMARK  160  A    between atoms: _429  and  _430
REMARK  161  A    between atoms: _429  and  _432
REMARK  162  A    between atoms: _432  and  _433
REMARK  163  A    between atoms: _439  and  _441
REMARK  164  A    between atoms: _441  and  _442
REMARK  165  A    between atoms: _441  and  _444
REMARK  166  A    between atoms: _444  and  _445
REMARK  167  A    between atoms: _450  and  _451
REMARK  168  A    between atoms: _453  and  _455
REMARK  169  A    between atoms: _455  and  _456
REMARK  170  A    between atoms: _455  and  _458
REMARK  171  A    between atoms: _458  and  _459
REMARK  172  A    between atoms: _469  and  _471
REMARK  173  A    between atoms: _471  and  _472
REMARK  174  A    between atoms: _471  and  _474
REMARK  175  A    between atoms: _474  and  _475
REMARK  176  A    between atoms: _480  and  _481
REMARK  177  A    between atoms: _483  and  _485
REMARK  178  A    between atoms: _485  and  _486
REMARK  179  A    between atoms: _485  and  _488
REMARK  180  A    between atoms: _488  and  _489
REMARK  181  A    between atoms: _495  and  _497
REMARK  182  A    between atoms: _497  and  _498
REMARK  183  A    between atoms: _501  and  _503
REMARK  184  A    between atoms: _503  and  _504
REMARK  185  A    between atoms: _503  and  _506
REMARK  186  A    between atoms: _506  and  _507
REMARK  187  A    between atoms: _509  and  _511
REMARK  188  A    between atoms: _511  and  _512
REMARK  189  A    between atoms: _514  and  _516
REMARK  190  A    between atoms: _516  and  _517
REMARK  191  A    between atoms: _516  and  _519
REMARK  192  A    between atoms: _519  and  _520
REMARK  193  A    between atoms: _520  and  _521
REMARK  194  A    between atoms: _527  and  _528
REMARK  195  A    between atoms: _533  and  _535
REMARK  196  A    between atoms: _535  and  _536
REMARK  197  A    between atoms: _535  and  _538
REMARK  198  A    between atoms: _538  and  _539
REMARK  199  A    between atoms: _544  and  _545
REMARK  200  A    between atoms: _547  and  _549
REMARK  201  A    between atoms: _549  and  _550
REMARK  202  A    between atoms: _549  and  _552
REMARK  203  A    between atoms: _552  and  _553
REMARK  204  A    between atoms: _553  and  _554
REMARK  205  A    between atoms: _554  and  _555
REMARK  206  A    between atoms: _564  and  _566
REMARK  207  A    between atoms: _566  and  _567
REMARK  208  A    between atoms: _566  and  _569
REMARK  209  A    between atoms: _569  and  _570
REMARK  210  A    between atoms: _575  and  _576
REMARK  211  A    between atoms: _578  and  _580
REMARK  212  A    between atoms: _580  and  _581
REMARK  213  A    between atoms: _580  and  _583
REMARK  214  A    between atoms: _583  and  _584
REMARK  215  A    between atoms: _584  and  _585
REMARK  216  A    between atoms: _588  and  _590
REMARK  217  A    between atoms: _590  and  _591
REMARK  218  A    between atoms: _590  and  _593
REMARK  219  A    between atoms: _593  and  _594
REMARK  220  A    between atoms: _594  and  _595
REMARK  221  A    between atoms: _595  and  _596
REMARK                            x       y       z     vdW  Elec       q    Type
REMARK                         _______ _______ _______ _____ _____    ______ ____
ROOT
ATOM      1  O   HOH     1      -3.363  11.843  -3.606  0.00  0.00    +0.000 OA
ENDROOT
TORSDOF 0
REMARK  Name = ../refined-set-2016/4zb8/4zb8_pocket.pdb
REMARK  221 active torsions:
REMARK  status: ('A' for Active; 'I' for Inactive)
REMARK    1  A    between atoms: _1  and  _3
REMARK    2  A    between atoms: _3  and  _4
REMARK    3  A    between atoms: _3  and  _6
REMARK    4  A    between atoms: _6  and  _7
REMARK    5  A    between atoms: _12  and  _13
REMARK    6  A    between atoms: _15  and  _17
REMARK    7  A    between atoms: _17  and  _18
REMARK    8  A    between atoms: _17  and  _20
REMARK    9  A    between atoms: _20  and  _21
REMARK   10  A    between atoms: _24  and  _26
REMARK   11  A    between atoms: _26  and  _27
REMARK   12  A    between atoms: _26  and  _29
REMARK   13  A    between atoms: _29  and  _30
REMARK   14  A    between atoms: _35  and  _37
REMARK   15  A    between atoms: _37  and  _38
REMARK   16  A    between atoms: _40  and  _42
REMARK   17  A    between atoms: _42  and  _43
REMARK   18  A    between atoms: _46  and  _47
REMARK   19  A    between atoms: _52  and  _54
REMARK   20  A    between atoms: _54  and  _55
REMARK   21  A    between atoms: _54  and  _57
REMARK   22  A    between atoms: _57  and  _58
REMARK   23  A    between atoms: _63  and  _65
REMARK   24  A    between atoms: _65  and  _66
REMARK   25  A    between atoms: _68  and  _70
REMARK   26  A    between atoms: _70  and  _71
REMARK   27  A    between atoms: _70  and  _73
REMARK   28  A    between atoms: _73  and  _74
REMARK   29  A    between atoms: _84  and  _86
REMARK   30  A    between atoms: _86  and  _87
REMARK   31  A    between atoms: _86  and  _89
REMARK   32  A    between atoms: _89  and  _90
REMARK   33  A    between atoms: _90  and  _91
REMARK   34  A    between atoms: _91  and  _92
REMARK   35  A    between atoms: _92  and  _93
REMARK   36  A    between atoms: _97  and  _99
REMARK   37  A    between atoms: _99  and  _100
REMARK   38  A    between atoms: _99  and  _102
REMARK   39  A    between atoms: _105  and  _107
REMARK   40  A    between atoms: _107  and  _108
REMARK   41  A    between atoms: _107  and  _110
REMARK   42  A    between atoms: _110  and  _111
REMARK   43  A    between atoms: _114  and  _116
REMARK   44  A    between atoms: _116  and  _117
REMARK   45  A    between atoms: _116  and  _119
REMARK   46  A    between atoms: _119  and  _120
REMARK   47  A    between atoms: _126  and  _128
REMARK   48  A    between atoms: _128  and  _129
REMARK   49  A    between atoms: _128  and  _131
REMARK   50  A    between atoms: _131  and  _132
REMARK   51  A    between atoms: _137  and  _139
REMARK   52  A    between atoms: _139  and  _140
REMARK   53  A    between atoms: _139  and  _142
REMARK   54  A    between atoms: _142  and  _143
REMARK   55  A    between atoms: _143  and  _144
REMARK   56  A    between atoms: _144  and  _145
REMARK   57  A    between atoms: _145  and  _146
REMARK   58  A    between atoms: _150  and  _152
REMARK   59  A    between atoms: _152  and  _153
REMARK   60  A    between atoms: _152  and  _155
REMARK   61  A    between atoms: _155  and  _156
REMARK   62  A    between atoms: _161  and  _162
REMARK   63  A    between atoms: _164  and  _166
REMARK   64  A    between atoms: _166  and  _167
REMARK   65  A    between atoms: _166  and  _169
REMARK   66  A    between atoms: _169  and  _170
REMARK   67  A    between atoms: _175  and  _177
REMARK   68  A    between atoms: _177  and  _178
REMARK   69  A    between atoms: _177  and  _180
REMARK   70  A    between atoms: _180  and  _181
REMARK   71  A    between atoms: _186  and  _188
REMARK   72  A    between atoms: _188  and  _189
REMARK   73  A    between atoms: _191  and  _193
REMARK   74  A    between atoms: _193  and  _194
REMARK   75  A    between atoms: _193  and  _196
REMARK   76  A    between atoms: _196  and  _197
REMARK   77  A    between atoms: _197  and  _198
REMARK   78  A    between atoms: _198  and  _199
REMARK   79  A    between atoms: _208  and  _210
REMARK   80  A    between atoms: _210  and  _211
REMARK   81  A    between atoms: _210  and  _213
REMARK   82  A    between atoms: _213  and  _214
REMARK   83  A    between atoms: _218  and  _219
REMARK   84  A    between atoms: _224  and  _226
REMARK   85  A    between atoms: _226  and  _227
REMARK   86  A    between atoms: _230  and  _232
REMARK   87  A    between atoms: _232  and  _233
REMARK   88  A    between atoms: _232  and  _235
REMARK   89  A    between atoms: _235  and  _236
REMARK   90  A    between atoms: _246  and  _248
REMARK   91  A    between atoms: _248  and  _249
REMARK   92  A    between atoms: _248  and  _251
REMARK   93  A    between atoms: _251  and  _252
REMARK   94  A    between atoms: _252  and  _253
REMARK   95  A    between atoms: _256  and  _258
REMARK   96  A    between atoms: _258  and  _259
REMARK   97  A    between atoms: _258  and  _261
REMARK   98  A    between atoms: _261  and  _262
REMARK   99  A    between atoms: _264  and  _266
REMARK  100  A    between atoms: _266  and  _267
REMARK  101  A    between atoms: _266  and  _269
REMARK  102  A    between atoms: _269  and  _270
REMARK  103  A    between atoms: _275  and  _277
REMARK  104  A    between atoms: _277  and  _278
REMARK  105  A    between atoms: _281  and  _283
REMARK  106  A    between atoms: _283  and  _284
REMARK  107  A    between atoms: _283  and  _286
REMARK  108  A    between atoms: _286  and  _287
REMARK  109  A    between atoms: _290  and  _292
REMARK  110  A    between atoms: _292  and  _293
REMARK  111  A    between atoms: _292  and  _295
REMARK  112  A    between atoms: _295  and  _296
REMARK  113  A    between atoms: _299  and  _301
REMARK  114  A    between atoms: _301  and  _302
REMARK  115  A    between atoms: _301  and  _304
REMARK  116  A    between atoms: _304  and  _305
REMARK  117  A    between atoms: _305  and  _306
REMARK  118  A    between atoms: _311  and  _313
REMARK  119  A    between atoms: _313  and  _314
REMARK  120  A    between atoms: _317  and  _319
REMARK  121  A    between atoms: _319  and  _320
REMARK  122  A    between atoms: _319  and  _322
REMARK  123  A    between atoms: _322  and  _323
REMARK  124  A    between atoms: _325  and  _327
REMARK  125  A    between atoms: _327  and  _328
REMARK  126  A    between atoms: _330  and  _332
REMARK  127  A    between atoms: _332  and  _333
REMARK  128  A    between atoms: _332  and  _335
REMARK  129  A    between atoms: _335  and  _336
REMARK  130  A    between atoms: _336  and  _337
REMARK  131  A    between atoms: _342  and  _344
REMARK  132  A    between atoms: _344  and  _345
REMARK  133  A    between atoms: _348  and  _349
REMARK  134  A    between atoms: _354  and  _356
REMARK  135  A    between atoms: _356  and  _357
REMARK  136  A    between atoms: _356  and  _359
REMARK  137  A    between atoms: _359  and  _360
REMARK  138  A    between atoms: _365  and  _366
REMARK  139  A    between atoms: _368  and  _370
REMARK  140  A    between atoms: _370  and  _371
REMARK  141  A    between atoms: _370  and  _373
REMARK  142  A    between atoms: _373  and  _374
REMARK  143  A    between atoms: _379  and  _380
REMARK  144  A    between atoms: _382  and  _384
REMARK  145  A    between atoms: _384  and  _385
REMARK  146  A    between atoms: _387  and  _389
REMARK  147  A    between atoms: _389  and  _390
REMARK  148  A    between atoms: _389  and  _392
REMARK  149  A    between atoms: _392  and  _393
REMARK  150  A    between atoms: _393  and  _394
REMARK  151  A    between atoms: _399  and  _401
REMARK  152  A    between atoms: _401  and  _402
REMARK  153  A    between atoms: _405  and  _407
REMARK  154  A    between atoms: _407  and  _408
REMARK  155  A    between atoms: _411  and  _413
REMARK  156  A    between atoms: _413  and  _414
REMARK  157  A    between atoms: _413  and  _416
REMARK  158  A    between atoms: _416  and  _417
REMARK  159  A    between atoms: _427  and  _429
REMARK  160  A    between atoms: _429  and  _430
REMARK  161  A    between atoms: _429  and  _432
REMARK  162  A    between atoms: _432  and  _433
REMARK  163  A    between atoms: _439  and  _441
REMARK  164  A    between atoms: _441  and  _442
REMARK  165  A    between atoms: _441  and  _444
REMARK  166  A    between atoms: _444  and  _445
REMARK  167  A    between atoms: _450  and  _451
REMARK  168  A    between atoms: _453  and  _455
REMARK  169  A    between atoms: _455  and  _456
REMARK  170  A    between atoms: _455  and  _458
REMARK  171  A    between atoms: _458  and  _459
REMARK  172  A    between atoms: _469  and  _471
REMARK  173  A    between atoms: _471  and  _472
REMARK  174  A    between atoms: _471  and  _474
REMARK  175  A    between atoms: _474  and  _475
REMARK  176  A    between atoms: _480  and  _481
REMARK  177  A    between atoms: _483  and  _485
REMARK  178  A    between atoms: _485  and  _486
REMARK  179  A    between atoms: _485  and  _488
REMARK  180  A    between atoms: _488  and  _489
REMARK  181  A    between atoms: _495  and  _497
REMARK  182  A    between atoms: _497  and  _498
REMARK  183  A    between atoms: _501  and  _503
REMARK  184  A    between atoms: _503  and  _504
REMARK  185  A    between atoms: _503  and  _506
REMARK  186  A    between atoms: _506  and  _507
REMARK  187  A    between atoms: _509  and  _511
REMARK  188  A    between atoms: _511  and  _512
REMARK  189  A    between atoms: _514  and  _516
REMARK  190  A    between atoms: _516  and  _517
REMARK  191  A    between atoms: _516  and  _519
REMARK  192  A    between atoms: _519  and  _520
REMARK  193  A    between atoms: _520  and  _521
REMARK  194  A    between atoms: _527  and  _528
REMARK  195  A    between atoms: _533  and  _535
REMARK  196  A    between atoms: _535  and  _536
REMARK  197  A    between atoms: _535  and  _538
REMARK  198  A    between atoms: _538  and  _539
REMARK  199  A    between atoms: _544  and  _545
REMARK  200  A    between atoms: _547  and  _549
REMARK  201  A    between atoms: _549  and  _550
REMARK  202  A    between atoms: _549  and  _552
REMARK  203  A    between atoms: _552  and  _553
REMARK  204  A    between atoms: _553  and  _554
REMARK  205  A    between atoms: _554  and  _555
REMARK  206  A    between atoms: _564  and  _566
REMARK  207  A    between atoms: _566  and  _567
REMARK  208  A    between atoms: _566  and  _569
REMARK  209  A    between atoms: _569  and  _570
REMARK  210  A    between atoms: _575  and  _576
REMARK  211  A    between atoms: _578  and  _580
REMARK  212  A    between atoms: _580  and  _581
REMARK  213  A    between atoms: _580  and  _583
REMARK  214  A    between atoms: _583  and  _584
REMARK  215  A    between atoms: _584  and  _585
REMARK  216  A    between atoms: _588  and  _590
REMARK  217  A    between atoms: _590  and  _591
REMARK  218  A    between atoms: _590  and  _593
REMARK  219  A    between atoms: _593  and  _594
REMARK  220  A    between atoms: _594  and  _595
REMARK  221  A    between atoms: _595  and  _596
REMARK                            x       y       z     vdW  Elec       q    Type
REMARK                         _______ _______ _______ _____ _____    ______ ____
ROOT
ATOM      1  O   HOH     1      -4.921  15.508  -1.160  0.00  0.00    +0.000 OA
ENDROOT
TORSDOF 0
REMARK  Name = ../refined-set-2016/4zb8/4zb8_pocket.pdb
REMARK  221 active torsions:
REMARK  status: ('A' for Active; 'I' for Inactive)
REMARK    1  A    between atoms: _1  and  _3
REMARK    2  A    between atoms: _3  and  _4
REMARK    3  A    between atoms: _3  and  _6
REMARK    4  A    between atoms: _6  and  _7
REMARK    5  A    between atoms: _12  and  _13
REMARK    6  A    between atoms: _15  and  _17
REMARK    7  A    between atoms: _17  and  _18
REMARK    8  A    between atoms: _17  and  _20
REMARK    9  A    between atoms: _20  and  _21
REMARK   10  A    between atoms: _24  and  _26
REMARK   11  A    between atoms: _26  and  _27
REMARK   12  A    between atoms: _26  and  _29
REMARK   13  A    between atoms: _29  and  _30
REMARK   14  A    between atoms: _35  and  _37
REMARK   15  A    between atoms: _37  and  _38
REMARK   16  A    between atoms: _40  and  _42
REMARK   17  A    between atoms: _42  and  _43
REMARK   18  A    between atoms: _46  and  _47
REMARK   19  A    between atoms: _52  and  _54
REMARK   20  A    between atoms: _54  and  _55
REMARK   21  A    between atoms: _54  and  _57
REMARK   22  A    between atoms: _57  and  _58
REMARK   23  A    between atoms: _63  and  _65
REMARK   24  A    between atoms: _65  and  _66
REMARK   25  A    between atoms: _68  and  _70
REMARK   26  A    between atoms: _70  and  _71
REMARK   27  A    between atoms: _70  and  _73
REMARK   28  A    between atoms: _73  and  _74
REMARK   29  A    between atoms: _84  and  _86
REMARK   30  A    between atoms: _86  and  _87
REMARK   31  A    between atoms: _86  and  _89
REMARK   32  A    between atoms: _89  and  _90
REMARK   33  A    between atoms: _90  and  _91
REMARK   34  A    between atoms: _91  and  _92
REMARK   35  A    between atoms: _92  and  _93
REMARK   36  A    between atoms: _97  and  _99
REMARK   37  A    between atoms: _99  and  _100
REMARK   38  A    between atoms: _99  and  _102
REMARK   39  A    between atoms: _105  and  _107
REMARK   40  A    between atoms: _107  and  _108
REMARK   41  A    between atoms: _107  and  _110
REMARK   42  A    between atoms: _110  and  _111
REMARK   43  A    between atoms: _114  and  _116
REMARK   44  A    between atoms: _116  and  _117
REMARK   45  A    between atoms: _116  and  _119
REMARK   46  A    between atoms: _119  and  _120
REMARK   47  A    between atoms: _126  and  _128
REMARK   48  A    between atoms: _128  and  _129
REMARK   49  A    between atoms: _128  and  _131
REMARK   50  A    between atoms: _131  and  _132
REMARK   51  A    between atoms: _137  and  _139
REMARK   52  A    between atoms: _139  and  _140
REMARK   53  A    between atoms: _139  and  _142
REMARK   54  A    between atoms: _142  and  _143
REMARK   55  A    between atoms: _143  and  _144
REMARK   56  A    between atoms: _144  and  _145
REMARK   57  A    between atoms: _145  and  _146
REMARK   58  A    between atoms: _150  and  _152
REMARK   59  A    between atoms: _152  and  _153
REMARK   60  A    between atoms: _152  and  _155
REMARK   61  A    between atoms: _155  and  _156
REMARK   62  A    between atoms: _161  and  _162
REMARK   63  A    between atoms: _164  and  _166
REMARK   64  A    between atoms: _166  and  _167
REMARK   65  A    between atoms: _166  and  _169
REMARK   66  A    between atoms: _169  and  _170
REMARK   67  A    between atoms: _175  and  _177
REMARK   68  A    between atoms: _177  and  _178
REMARK   69  A    between atoms: _177  and  _180
REMARK   70  A    between atoms: _180  and  _181
REMARK   71  A    between atoms: _186  and  _188
REMARK   72  A    between atoms: _188  and  _189
REMARK   73  A    between atoms: _191  and  _193
REMARK   74  A    between atoms: _193  and  _194
REMARK   75  A    between atoms: _193  and  _196
REMARK   76  A    between atoms: _196  and  _197
REMARK   77  A    between atoms: _197  and  _198
REMARK   78  A    between atoms: _198  and  _199
REMARK   79  A    between atoms: _208  and  _210
REMARK   80  A    between atoms: _210  and  _211
REMARK   81  A    between atoms: _210  and  _213
REMARK   82  A    between atoms: _213  and  _214
REMARK   83  A    between atoms: _218  and  _219
REMARK   84  A    between atoms: _224  and  _226
REMARK   85  A    between atoms: _226  and  _227
REMARK   86  A    between atoms: _230  and  _232
REMARK   87  A    between atoms: _232  and  _233
REMARK   88  A    between atoms: _232  and  _235
REMARK   89  A    between atoms: _235  and  _236
REMARK   90  A    between atoms: _246  and  _248
REMARK   91  A    between atoms: _248  and  _249
REMARK   92  A    between atoms: _248  and  _251
REMARK   93  A    between atoms: _251  and  _252
REMARK   94  A    between atoms: _252  and  _253
REMARK   95  A    between atoms: _256  and  _258
REMARK   96  A    between atoms: _258  and  _259
REMARK   97  A    between atoms: _258  and  _261
REMARK   98  A    between atoms: _261  and  _262
REMARK   99  A    between atoms: _264  and  _266
REMARK  100  A    between atoms: _266  and  _267
REMARK  101  A    between atoms: _266  and  _269
REMARK  102  A    between atoms: _269  and  _270
REMARK  103  A    between atoms: _275  and  _277
REMARK  104  A    between atoms: _277  and  _278
REMARK  105  A    between atoms: _281  and  _283
REMARK  106  A    between atoms: _283  and  _284
REMARK  107  A    between atoms: _283  and  _286
REMARK  108  A    between atoms: _286  and  _287
REMARK  109  A    between atoms: _290  and  _292
REMARK  110  A    between atoms: _292  and  _293
REMARK  111  A    between atoms: _292  and  _295
REMARK  112  A    between atoms: _295  and  _296
REMARK  113  A    between atoms: _299  and  _301
REMARK  114  A    between atoms: _301  and  _302
REMARK  115  A    between atoms: _301  and  _304
REMARK  116  A    between atoms: _304  and  _305
REMARK  117  A    between atoms: _305  and  _306
REMARK  118  A    between atoms: _311  and  _313
REMARK  119  A    between atoms: _313  and  _314
REMARK  120  A    between atoms: _317  and  _319
REMARK  121  A    between atoms: _319  and  _320
REMARK  122  A    between atoms: _319  and  _322
REMARK  123  A    between atoms: _322  and  _323
REMARK  124  A    between atoms: _325  and  _327
REMARK  125  A    between atoms: _327  and  _328
REMARK  126  A    between atoms: _330  and  _332
REMARK  127  A    between atoms: _332  and  _333
REMARK  128  A    between atoms: _332  and  _335
REMARK  129  A    between atoms: _335  and  _336
REMARK  130  A    between atoms: _336  and  _337
REMARK  131  A    between atoms: _342  and  _344
REMARK  132  A    between atoms: _344  and  _345
REMARK  133  A    between atoms: _348  and  _349
REMARK  134  A    between atoms: _354  and  _356
REMARK  135  A    between atoms: _356  and  _357
REMARK  136  A    between atoms: _356  and  _359
REMARK  137  A    between atoms: _359  and  _360
REMARK  138  A    between atoms: _365  and  _366
REMARK  139  A    between atoms: _368  and  _370
REMARK  140  A    between atoms: _370  and  _371
REMARK  141  A    between atoms: _370  and  _373
REMARK  142  A    between atoms: _373  and  _374
REMARK  143  A    between atoms: _379  and  _380
REMARK  144  A    between atoms: _382  and  _384
REMARK  145  A    between atoms: _384  and  _385
REMARK  146  A    between atoms: _387  and  _389
REMARK  147  A    between atoms: _389  and  _390
REMARK  148  A    between atoms: _389  and  _392
REMARK  149  A    between atoms: _392  and  _393
REMARK  150  A    between atoms: _393  and  _394
REMARK  151  A    between atoms: _399  and  _401
REMARK  152  A    between atoms: _401  and  _402
REMARK  153  A    between atoms: _405  and  _407
REMARK  154  A    between atoms: _407  and  _408
REMARK  155  A    between atoms: _411  and  _413
REMARK  156  A    between atoms: _413  and  _414
REMARK  157  A    between atoms: _413  and  _416
REMARK  158  A    between atoms: _416  and  _417
REMARK  159  A    between atoms: _427  and  _429
REMARK  160  A    between atoms: _429  and  _430
REMARK  161  A    between atoms: _429  and  _432
REMARK  162  A    between atoms: _432  and  _433
REMARK  163  A    between atoms: _439  and  _441
REMARK  164  A    between atoms: _441  and  _442
REMARK  165  A    between atoms: _441  and  _444
REMARK  166  A    between atoms: _444  and  _445
REMARK  167  A    between atoms: _450  and  _451
REMARK  168  A    between atoms: _453  and  _455
REMARK  169  A    between atoms: _455  and  _456
REMARK  170  A    between atoms: _455  and  _458
REMARK  171  A    between atoms: _458  and  _459
REMARK  172  A    between atoms: _469  and  _471
REMARK  173  A    between atoms: _471  and  _472
REMARK  174  A    between atoms: _471  and  _474
REMARK  175  A    between atoms: _474  and  _475
REMARK  176  A    between atoms: _480  and  _481
REMARK  177  A    between atoms: _483  and  _485
REMARK  178  A    between atoms: _485  and  _486
REMARK  179  A    between atoms: _485  and  _488
REMARK  180  A    between atoms: _488  and  _489
REMARK  181  A    between atoms: _495  and  _497
REMARK  182  A    between atoms: _497  and  _498
REMARK  183  A    between atoms: _501  and  _503
REMARK  184  A    between atoms: _503  and  _504
REMARK  185  A    between atoms: _503  and  _506
REMARK  186  A    between atoms: _506  and  _507
REMARK  187  A    between atoms: _509  and  _511
REMARK  188  A    between atoms: _511  and  _512
REMARK  189  A    between atoms: _514  and  _516
REMARK  190  A    between atoms: _516  and  _517
REMARK  191  A    between atoms: _516  and  _519
REMARK  192  A    between atoms: _519  and  _520
REMARK  193  A    between atoms: _520  and  _521
REMARK  194  A    between atoms: _527  and  _528
REMARK  195  A    between atoms: _533  and  _535
REMARK  196  A    between atoms: _535  and  _536
REMARK  197  A    between atoms: _535  and  _538
REMARK  198  A    between atoms: _538  and  _539
REMARK  199  A    between atoms: _544  and  _545
REMARK  200  A    between atoms: _547  and  _549
REMARK  201  A    between atoms: _549  and  _550
REMARK  202  A    between atoms: _549  and  _552
REMARK  203  A    between atoms: _552  and  _553
REMARK  204  A    between atoms: _553  and  _554
REMARK  205  A    between atoms: _554  and  _555
REMARK  206  A    between atoms: _564  and  _566
REMARK  207  A    between atoms: _566  and  _567
REMARK  208  A    between atoms: _566  and  _569
REMARK  209  A    between atoms: _569  and  _570
REMARK  210  A    between atoms: _575  and  _576
REMARK  211  A    between atoms: _578  and  _580
REMARK  212  A    between atoms: _580  and  _581
REMARK  213  A    between atoms: _580  and  _583
REMARK  214  A    between atoms: _583  and  _584
REMARK  215  A    between atoms: _584  and  _585
REMARK  216  A    between atoms: _588  and  _590
REMARK  217  A    between atoms: _590  and  _591
REMARK  218  A    between atoms: _590  and  _593
REMARK  219  A    between atoms: _593  and  _594
REMARK  220  A    between atoms: _594  and  _595
REMARK  221  A    between atoms: _595  and  _596
REMARK                            x       y       z     vdW  Elec       q    Type
REMARK                         _______ _______ _______ _____ _____    ______ ____
ROOT
ATOM      1  O   HOH     1      -9.822   6.129  -1.251  0.00  0.00    +0.000 OA
ENDROOT
TORSDOF 0
REMARK  Name = ../refined-set-2016/4zb8/4zb8_pocket.pdb
REMARK  221 active torsions:
REMARK  status: ('A' for Active; 'I' for Inactive)
REMARK    1  A    between atoms: _1  and  _3
REMARK    2  A    between atoms: _3  and  _4
REMARK    3  A    between atoms: _3  and  _6
REMARK    4  A    between atoms: _6  and  _7
REMARK    5  A    between atoms: _12  and  _13
REMARK    6  A    between atoms: _15  and  _17
REMARK    7  A    between atoms: _17  and  _18
REMARK    8  A    between atoms: _17  and  _20
REMARK    9  A    between atoms: _20  and  _21
REMARK   10  A    between atoms: _24  and  _26
REMARK   11  A    between atoms: _26  and  _27
REMARK   12  A    between atoms: _26  and  _29
REMARK   13  A    between atoms: _29  and  _30
REMARK   14  A    between atoms: _35  and  _37
REMARK   15  A    between atoms: _37  and  _38
REMARK   16  A    between atoms: _40  and  _42
REMARK   17  A    between atoms: _42  and  _43
REMARK   18  A    between atoms: _46  and  _47
REMARK   19  A    between atoms: _52  and  _54
REMARK   20  A    between atoms: _54  and  _55
REMARK   21  A    between atoms: _54  and  _57
REMARK   22  A    between atoms: _57  and  _58
REMARK   23  A    between atoms: _63  and  _65
REMARK   24  A    between atoms: _65  and  _66
REMARK   25  A    between atoms: _68  and  _70
REMARK   26  A    between atoms: _70  and  _71
REMARK   27  A    between atoms: _70  and  _73
REMARK   28  A    between atoms: _73  and  _74
REMARK   29  A    between atoms: _84  and  _86
REMARK   30  A    between atoms: _86  and  _87
REMARK   31  A    between atoms: _86  and  _89
REMARK   32  A    between atoms: _89  and  _90
REMARK   33  A    between atoms: _90  and  _91
REMARK   34  A    between atoms: _91  and  _92
REMARK   35  A    between atoms: _92  and  _93
REMARK   36  A    between atoms: _97  and  _99
REMARK   37  A    between atoms: _99  and  _100
REMARK   38  A    between atoms: _99  and  _102
REMARK   39  A    between atoms: _105  and  _107
REMARK   40  A    between atoms: _107  and  _108
REMARK   41  A    between atoms: _107  and  _110
REMARK   42  A    between atoms: _110  and  _111
REMARK   43  A    between atoms: _114  and  _116
REMARK   44  A    between atoms: _116  and  _117
REMARK   45  A    between atoms: _116  and  _119
REMARK   46  A    between atoms: _119  and  _120
REMARK   47  A    between atoms: _126  and  _128
REMARK   48  A    between atoms: _128  and  _129
REMARK   49  A    between atoms: _128  and  _131
REMARK   50  A    between atoms: _131  and  _132
REMARK   51  A    between atoms: _137  and  _139
REMARK   52  A    between atoms: _139  and  _140
REMARK   53  A    between atoms: _139  and  _142
REMARK   54  A    between atoms: _142  and  _143
REMARK   55  A    between atoms: _143  and  _144
REMARK   56  A    between atoms: _144  and  _145
REMARK   57  A    between atoms: _145  and  _146
REMARK   58  A    between atoms: _150  and  _152
REMARK   59  A    between atoms: _152  and  _153
REMARK   60  A    between atoms: _152  and  _155
REMARK   61  A    between atoms: _155  and  _156
REMARK   62  A    between atoms: _161  and  _162
REMARK   63  A    between atoms: _164  and  _166
REMARK   64  A    between atoms: _166  and  _167
REMARK   65  A    between atoms: _166  and  _169
REMARK   66  A    between atoms: _169  and  _170
REMARK   67  A    between atoms: _175  and  _177
REMARK   68  A    between atoms: _177  and  _178
REMARK   69  A    between atoms: _177  and  _180
REMARK   70  A    between atoms: _180  and  _181
REMARK   71  A    between atoms: _186  and  _188
REMARK   72  A    between atoms: _188  and  _189
REMARK   73  A    between atoms: _191  and  _193
REMARK   74  A    between atoms: _193  and  _194
REMARK   75  A    between atoms: _193  and  _196
REMARK   76  A    between atoms: _196  and  _197
REMARK   77  A    between atoms: _197  and  _198
REMARK   78  A    between atoms: _198  and  _199
REMARK   79  A    between atoms: _208  and  _210
REMARK   80  A    between atoms: _210  and  _211
REMARK   81  A    between atoms: _210  and  _213
REMARK   82  A    between atoms: _213  and  _214
REMARK   83  A    between atoms: _218  and  _219
REMARK   84  A    between atoms: _224  and  _226
REMARK   85  A    between atoms: _226  and  _227
REMARK   86  A    between atoms: _230  and  _232
REMARK   87  A    between atoms: _232  and  _233
REMARK   88  A    between atoms: _232  and  _235
REMARK   89  A    between atoms: _235  and  _236
REMARK   90  A    between atoms: _246  and  _248
REMARK   91  A    between atoms: _248  and  _249
REMARK   92  A    between atoms: _248  and  _251
REMARK   93  A    between atoms: _251  and  _252
REMARK   94  A    between atoms: _252  and  _253
REMARK   95  A    between atoms: _256  and  _258
REMARK   96  A    between atoms: _258  and  _259
REMARK   97  A    between atoms: _258  and  _261
REMARK   98  A    between atoms: _261  and  _262
REMARK   99  A    between atoms: _264  and  _266
REMARK  100  A    between atoms: _266  and  _267
REMARK  101  A    between atoms: _266  and  _269
REMARK  102  A    between atoms: _269  and  _270
REMARK  103  A    between atoms: _275  and  _277
REMARK  104  A    between atoms: _277  and  _278
REMARK  105  A    between atoms: _281  and  _283
REMARK  106  A    between atoms: _283  and  _284
REMARK  107  A    between atoms: _283  and  _286
REMARK  108  A    between atoms: _286  and  _287
REMARK  109  A    between atoms: _290  and  _292
REMARK  110  A    between atoms: _292  and  _293
REMARK  111  A    between atoms: _292  and  _295
REMARK  112  A    between atoms: _295  and  _296
REMARK  113  A    between atoms: _299  and  _301
REMARK  114  A    between atoms: _301  and  _302
REMARK  115  A    between atoms: _301  and  _304
REMARK  116  A    between atoms: _304  and  _305
REMARK  117  A    between atoms: _305  and  _306
REMARK  118  A    between atoms: _311  and  _313
REMARK  119  A    between atoms: _313  and  _314
REMARK  120  A    between atoms: _317  and  _319
REMARK  121  A    between atoms: _319  and  _320
REMARK  122  A    between atoms: _319  and  _322
REMARK  123  A    between atoms: _322  and  _323
REMARK  124  A    between atoms: _325  and  _327
REMARK  125  A    between atoms: _327  and  _328
REMARK  126  A    between atoms: _330  and  _332
REMARK  127  A    between atoms: _332  and  _333
REMARK  128  A    between atoms: _332  and  _335
REMARK  129  A    between atoms: _335  and  _336
REMARK  130  A    between atoms: _336  and  _337
REMARK  131  A    between atoms: _342  and  _344
REMARK  132  A    between atoms: _344  and  _345
REMARK  133  A    between atoms: _348  and  _349
REMARK  134  A    between atoms: _354  and  _356
REMARK  135  A    between atoms: _356  and  _357
REMARK  136  A    between atoms: _356  and  _359
REMARK  137  A    between atoms: _359  and  _360
REMARK  138  A    between atoms: _365  and  _366
REMARK  139  A    between atoms: _368  and  _370
REMARK  140  A    between atoms: _370  and  _371
REMARK  141  A    between atoms: _370  and  _373
REMARK  142  A    between atoms: _373  and  _374
REMARK  143  A    between atoms: _379  and  _380
REMARK  144  A    between atoms: _382  and  _384
REMARK  145  A    between atoms: _384  and  _385
REMARK  146  A    between atoms: _387  and  _389
REMARK  147  A    between atoms: _389  and  _390
REMARK  148  A    between atoms: _389  and  _392
REMARK  149  A    between atoms: _392  and  _393
REMARK  150  A    between atoms: _393  and  _394
REMARK  151  A    between atoms: _399  and  _401
REMARK  152  A    between atoms: _401  and  _402
REMARK  153  A    between atoms: _405  and  _407
REMARK  154  A    between atoms: _407  and  _408
REMARK  155  A    between atoms: _411  and  _413
REMARK  156  A    between atoms: _413  and  _414
REMARK  157  A    between atoms: _413  and  _416
REMARK  158  A    between atoms: _416  and  _417
REMARK  159  A    between atoms: _427  and  _429
REMARK  160  A    between atoms: _429  and  _430
REMARK  161  A    between atoms: _429  and  _432
REMARK  162  A    between atoms: _432  and  _433
REMARK  163  A    between atoms: _439  and  _441
REMARK  164  A    between atoms: _441  and  _442
REMARK  165  A    between atoms: _441  and  _444
REMARK  166  A    between atoms: _444  and  _445
REMARK  167  A    between atoms: _450  and  _451
REMARK  168  A    between atoms: _453  and  _455
REMARK  169  A    between atoms: _455  and  _456
REMARK  170  A    between atoms: _455  and  _458
REMARK  171  A    between atoms: _458  and  _459
REMARK  172  A    between atoms: _469  and  _471
REMARK  173  A    between atoms: _471  and  _472
REMARK  174  A    between atoms: _471  and  _474
REMARK  175  A    between atoms: _474  and  _475
REMARK  176  A    between atoms: _480  and  _481
REMARK  177  A    between atoms: _483  and  _485
REMARK  178  A    between atoms: _485  and  _486
REMARK  179  A    between atoms: _485  and  _488
REMARK  180  A    between atoms: _488  and  _489
REMARK  181  A    between atoms: _495  and  _497
REMARK  182  A    between atoms: _497  and  _498
REMARK  183  A    between atoms: _501  and  _503
REMARK  184  A    between atoms: _503  and  _504
REMARK  185  A    between atoms: _503  and  _506
REMARK  186  A    between atoms: _506  and  _507
REMARK  187  A    between atoms: _509  and  _511
REMARK  188  A    between atoms: _511  and  _512
REMARK  189  A    between atoms: _514  and  _516
REMARK  190  A    between atoms: _516  and  _517
REMARK  191  A    between atoms: _516  and  _519
REMARK  192  A    between atoms: _519  and  _520
REMARK  193  A    between atoms: _520  and  _521
REMARK  194  A    between atoms: _527  and  _528
REMARK  195  A    between atoms: _533  and  _535
REMARK  196  A    between atoms: _535  and  _536
REMARK  197  A    between atoms: _535  and  _538
REMARK  198  A    between atoms: _538  and  _539
REMARK  199  A    between atoms: _544  and  _545
REMARK  200  A    between atoms: _547  and  _549
REMARK  201  A    between atoms: _549  and  _550
REMARK  202  A    between atoms: _549  and  _552
REMARK  203  A    between atoms: _552  and  _553
REMARK  204  A    between atoms: _553  and  _554
REMARK  205  A    between atoms: _554  and  _555
REMARK  206  A    between atoms: _564  and  _566
REMARK  207  A    between atoms: _566  and  _567
REMARK  208  A    between atoms: _566  and  _569
REMARK  209  A    between atoms: _569  and  _570
REMARK  210  A    between atoms: _575  and  _576
REMARK  211  A    between atoms: _578  and  _580
REMARK  212  A    between atoms: _580  and  _581
REMARK  213  A    between atoms: _580  and  _583
REMARK  214  A    between atoms: _583  and  _584
REMARK  215  A    between atoms: _584  and  _585
REMARK  216  A    between atoms: _588  and  _590
REMARK  217  A    between atoms: _590  and  _591
REMARK  218  A    between atoms: _590  and  _593
REMARK  219  A    between atoms: _593  and  _594
REMARK  220  A    between atoms: _594  and  _595
REMARK  221  A    between atoms: _595  and  _596
REMARK                            x       y       z     vdW  Elec       q    Type
REMARK                         _______ _______ _______ _____ _____    ______ ____
ROOT
ATOM      1  O   HOH     1      -7.210   2.214 -17.057  0.00  0.00    +0.000 OA
ENDROOT
TORSDOF 0
REMARK  Name = ../refined-set-2016/4zb8/4zb8_pocket.pdb
REMARK  221 active torsions:
REMARK  status: ('A' for Active; 'I' for Inactive)
REMARK    1  A    between atoms: _1  and  _3
REMARK    2  A    between atoms: _3  and  _4
REMARK    3  A    between atoms: _3  and  _6
REMARK    4  A    between atoms: _6  and  _7
REMARK    5  A    between atoms: _12  and  _13
REMARK    6  A    between atoms: _15  and  _17
REMARK    7  A    between atoms: _17  and  _18
REMARK    8  A    between atoms: _17  and  _20
REMARK    9  A    between atoms: _20  and  _21
REMARK   10  A    between atoms: _24  and  _26
REMARK   11  A    between atoms: _26  and  _27
REMARK   12  A    between atoms: _26  and  _29
REMARK   13  A    between atoms: _29  and  _30
REMARK   14  A    between atoms: _35  and  _37
REMARK   15  A    between atoms: _37  and  _38
REMARK   16  A    between atoms: _40  and  _42
REMARK   17  A    between atoms: _42  and  _43
REMARK   18  A    between atoms: _46  and  _47
REMARK   19  A    between atoms: _52  and  _54
REMARK   20  A    between atoms: _54  and  _55
REMARK   21  A    between atoms: _54  and  _57
REMARK   22  A    between atoms: _57  and  _58
REMARK   23  A    between atoms: _63  and  _65
REMARK   24  A    between atoms: _65  and  _66
REMARK   25  A    between atoms: _68  and  _70
REMARK   26  A    between atoms: _70  and  _71
REMARK   27  A    between atoms: _70  and  _73
REMARK   28  A    between atoms: _73  and  _74
REMARK   29  A    between atoms: _84  and  _86
REMARK   30  A    between atoms: _86  and  _87
REMARK   31  A    between atoms: _86  and  _89
REMARK   32  A    between atoms: _89  and  _90
REMARK   33  A    between atoms: _90  and  _91
REMARK   34  A    between atoms: _91  and  _92
REMARK   35  A    between atoms: _92  and  _93
REMARK   36  A    between atoms: _97  and  _99
REMARK   37  A    between atoms: _99  and  _100
REMARK   38  A    between atoms: _99  and  _102
REMARK   39  A    between atoms: _105  and  _107
REMARK   40  A    between atoms: _107  and  _108
REMARK   41  A    between atoms: _107  and  _110
REMARK   42  A    between atoms: _110  and  _111
REMARK   43  A    between atoms: _114  and  _116
REMARK   44  A    between atoms: _116  and  _117
REMARK   45  A    between atoms: _116  and  _119
REMARK   46  A    between atoms: _119  and  _120
REMARK   47  A    between atoms: _126  and  _128
REMARK   48  A    between atoms: _128  and  _129
REMARK   49  A    between atoms: _128  and  _131
REMARK   50  A    between atoms: _131  and  _132
REMARK   51  A    between atoms: _137  and  _139
REMARK   52  A    between atoms: _139  and  _140
REMARK   53  A    between atoms: _139  and  _142
REMARK   54  A    between atoms: _142  and  _143
REMARK   55  A    between atoms: _143  and  _144
REMARK   56  A    between atoms: _144  and  _145
REMARK   57  A    between atoms: _145  and  _146
REMARK   58  A    between atoms: _150  and  _152
REMARK   59  A    between atoms: _152  and  _153
REMARK   60  A    between atoms: _152  and  _155
REMARK   61  A    between atoms: _155  and  _156
REMARK   62  A    between atoms: _161  and  _162
REMARK   63  A    between atoms: _164  and  _166
REMARK   64  A    between atoms: _166  and  _167
REMARK   65  A    between atoms: _166  and  _169
REMARK   66  A    between atoms: _169  and  _170
REMARK   67  A    between atoms: _175  and  _177
REMARK   68  A    between atoms: _177  and  _178
REMARK   69  A    between atoms: _177  and  _180
REMARK   70  A    between atoms: _180  and  _181
REMARK   71  A    between atoms: _186  and  _188
REMARK   72  A    between atoms: _188  and  _189
REMARK   73  A    between atoms: _191  and  _193
REMARK   74  A    between atoms: _193  and  _194
REMARK   75  A    between atoms: _193  and  _196
REMARK   76  A    between atoms: _196  and  _197
REMARK   77  A    between atoms: _197  and  _198
REMARK   78  A    between atoms: _198  and  _199
REMARK   79  A    between atoms: _208  and  _210
REMARK   80  A    between atoms: _210  and  _211
REMARK   81  A    between atoms: _210  and  _213
REMARK   82  A    between atoms: _213  and  _214
REMARK   83  A    between atoms: _218  and  _219
REMARK   84  A    between atoms: _224  and  _226
REMARK   85  A    between atoms: _226  and  _227
REMARK   86  A    between atoms: _230  and  _232
REMARK   87  A    between atoms: _232  and  _233
REMARK   88  A    between atoms: _232  and  _235
REMARK   89  A    between atoms: _235  and  _236
REMARK   90  A    between atoms: _246  and  _248
REMARK   91  A    between atoms: _248  and  _249
REMARK   92  A    between atoms: _248  and  _251
REMARK   93  A    between atoms: _251  and  _252
REMARK   94  A    between atoms: _252  and  _253
REMARK   95  A    between atoms: _256  and  _258
REMARK   96  A    between atoms: _258  and  _259
REMARK   97  A    between atoms: _258  and  _261
REMARK   98  A    between atoms: _261  and  _262
REMARK   99  A    between atoms: _264  and  _266
REMARK  100  A    between atoms: _266  and  _267
REMARK  101  A    between atoms: _266  and  _269
REMARK  102  A    between atoms: _269  and  _270
REMARK  103  A    between atoms: _275  and  _277
REMARK  104  A    between atoms: _277  and  _278
REMARK  105  A    between atoms: _281  and  _283
REMARK  106  A    between atoms: _283  and  _284
REMARK  107  A    between atoms: _283  and  _286
REMARK  108  A    between atoms: _286  and  _287
REMARK  109  A    between atoms: _290  and  _292
REMARK  110  A    between atoms: _292  and  _293
REMARK  111  A    between atoms: _292  and  _295
REMARK  112  A    between atoms: _295  and  _296
REMARK  113  A    between atoms: _299  and  _301
REMARK  114  A    between atoms: _301  and  _302
REMARK  115  A    between atoms: _301  and  _304
REMARK  116  A    between atoms: _304  and  _305
REMARK  117  A    between atoms: _305  and  _306
REMARK  118  A    between atoms: _311  and  _313
REMARK  119  A    between atoms: _313  and  _314
REMARK  120  A    between atoms: _317  and  _319
REMARK  121  A    between atoms: _319  and  _320
REMARK  122  A    between atoms: _319  and  _322
REMARK  123  A    between atoms: _322  and  _323
REMARK  124  A    between atoms: _325  and  _327
REMARK  125  A    between atoms: _327  and  _328
REMARK  126  A    between atoms: _330  and  _332
REMARK  127  A    between atoms: _332  and  _333
REMARK  128  A    between atoms: _332  and  _335
REMARK  129  A    between atoms: _335  and  _336
REMARK  130  A    between atoms: _336  and  _337
REMARK  131  A    between atoms: _342  and  _344
REMARK  132  A    between atoms: _344  and  _345
REMARK  133  A    between atoms: _348  and  _349
REMARK  134  A    between atoms: _354  and  _356
REMARK  135  A    between atoms: _356  and  _357
REMARK  136  A    between atoms: _356  and  _359
REMARK  137  A    between atoms: _359  and  _360
REMARK  138  A    between atoms: _365  and  _366
REMARK  139  A    between atoms: _368  and  _370
REMARK  140  A    between atoms: _370  and  _371
REMARK  141  A    between atoms: _370  and  _373
REMARK  142  A    between atoms: _373  and  _374
REMARK  143  A    between atoms: _379  and  _380
REMARK  144  A    between atoms: _382  and  _384
REMARK  145  A    between atoms: _384  and  _385
REMARK  146  A    between atoms: _387  and  _389
REMARK  147  A    between atoms: _389  and  _390
REMARK  148  A    between atoms: _389  and  _392
REMARK  149  A    between atoms: _392  and  _393
REMARK  150  A    between atoms: _393  and  _394
REMARK  151  A    between atoms: _399  and  _401
REMARK  152  A    between atoms: _401  and  _402
REMARK  153  A    between atoms: _405  and  _407
REMARK  154  A    between atoms: _407  and  _408
REMARK  155  A    between atoms: _411  and  _413
REMARK  156  A    between atoms: _413  and  _414
REMARK  157  A    between atoms: _413  and  _416
REMARK  158  A    between atoms: _416  and  _417
REMARK  159  A    between atoms: _427  and  _429
REMARK  160  A    between atoms: _429  and  _430
REMARK  161  A    between atoms: _429  and  _432
REMARK  162  A    between atoms: _432  and  _433
REMARK  163  A    between atoms: _439  and  _441
REMARK  164  A    between atoms: _441  and  _442
REMARK  165  A    between atoms: _441  and  _444
REMARK  166  A    between atoms: _444  and  _445
REMARK  167  A    between atoms: _450  and  _451
REMARK  168  A    between atoms: _453  and  _455
REMARK  169  A    between atoms: _455  and  _456
REMARK  170  A    between atoms: _455  and  _458
REMARK  171  A    between atoms: _458  and  _459
REMARK  172  A    between atoms: _469  and  _471
REMARK  173  A    between atoms: _471  and  _472
REMARK  174  A    between atoms: _471  and  _474
REMARK  175  A    between atoms: _474  and  _475
REMARK  176  A    between atoms: _480  and  _481
REMARK  177  A    between atoms: _483  and  _485
REMARK  178  A    between atoms: _485  and  _486
REMARK  179  A    between atoms: _485  and  _488
REMARK  180  A    between atoms: _488  and  _489
REMARK  181  A    between atoms: _495  and  _497
REMARK  182  A    between atoms: _497  and  _498
REMARK  183  A    between atoms: _501  and  _503
REMARK  184  A    between atoms: _503  and  _504
REMARK  185  A    between atoms: _503  and  _506
REMARK  186  A    between atoms: _506  and  _507
REMARK  187  A    between atoms: _509  and  _511
REMARK  188  A    between atoms: _511  and  _512
REMARK  189  A    between atoms: _514  and  _516
REMARK  190  A    between atoms: _516  and  _517
REMARK  191  A    between atoms: _516  and  _519
REMARK  192  A    between atoms: _519  and  _520
REMARK  193  A    between atoms: _520  and  _521
REMARK  194  A    between atoms: _527  and  _528
REMARK  195  A    between atoms: _533  and  _535
REMARK  196  A    between atoms: _535  and  _536
REMARK  197  A    between atoms: _535  and  _538
REMARK  198  A    between atoms: _538  and  _539
REMARK  199  A    between atoms: _544  and  _545
REMARK  200  A    between atoms: _547  and  _549
REMARK  201  A    between atoms: _549  and  _550
REMARK  202  A    between atoms: _549  and  _552
REMARK  203  A    between atoms: _552  and  _553
REMARK  204  A    between atoms: _553  and  _554
REMARK  205  A    between atoms: _554  and  _555
REMARK  206  A    between atoms: _564  and  _566
REMARK  207  A    between atoms: _566  and  _567
REMARK  208  A    between atoms: _566  and  _569
REMARK  209  A    between atoms: _569  and  _570
REMARK  210  A    between atoms: _575  and  _576
REMARK  211  A    between atoms: _578  and  _580
REMARK  212  A    between atoms: _580  and  _581
REMARK  213  A    between atoms: _580  and  _583
REMARK  214  A    between atoms: _583  and  _584
REMARK  215  A    between atoms: _584  and  _585
REMARK  216  A    between atoms: _588  and  _590
REMARK  217  A    between atoms: _590  and  _591
REMARK  218  A    between atoms: _590  and  _593
REMARK  219  A    between atoms: _593  and  _594
REMARK  220  A    between atoms: _594  and  _595
REMARK  221  A    between atoms: _595  and  _596
REMARK                            x       y       z     vdW  Elec       q    Type
REMARK                         _______ _______ _______ _____ _____    ______ ____
ROOT
ATOM      1  O   HOH     1     -14.378   3.385  -4.401  0.00  0.00    +0.000 OA
ENDROOT
TORSDOF 0
REMARK  Name = ../refined-set-2016/4zb8/4zb8_pocket.pdb
REMARK  221 active torsions:
REMARK  status: ('A' for Active; 'I' for Inactive)
REMARK    1  A    between atoms: _1  and  _3
REMARK    2  A    between atoms: _3  and  _4
REMARK    3  A    between atoms: _3  and  _6
REMARK    4  A    between atoms: _6  and  _7
REMARK    5  A    between atoms: _12  and  _13
REMARK    6  A    between atoms: _15  and  _17
REMARK    7  A    between atoms: _17  and  _18
REMARK    8  A    between atoms: _17  and  _20
REMARK    9  A    between atoms: _20  and  _21
REMARK   10  A    between atoms: _24  and  _26
REMARK   11  A    between atoms: _26  and  _27
REMARK   12  A    between atoms: _26  and  _29
REMARK   13  A    between atoms: _29  and  _30
REMARK   14  A    between atoms: _35  and  _37
REMARK   15  A    between atoms: _37  and  _38
REMARK   16  A    between atoms: _40  and  _42
REMARK   17  A    between atoms: _42  and  _43
REMARK   18  A    between atoms: _46  and  _47
REMARK   19  A    between atoms: _52  and  _54
REMARK   20  A    between atoms: _54  and  _55
REMARK   21  A    between atoms: _54  and  _57
REMARK   22  A    between atoms: _57  and  _58
REMARK   23  A    between atoms: _63  and  _65
REMARK   24  A    between atoms: _65  and  _66
REMARK   25  A    between atoms: _68  and  _70
REMARK   26  A    between atoms: _70  and  _71
REMARK   27  A    between atoms: _70  and  _73
REMARK   28  A    between atoms: _73  and  _74
REMARK   29  A    between atoms: _84  and  _86
REMARK   30  A    between atoms: _86  and  _87
REMARK   31  A    between atoms: _86  and  _89
REMARK   32  A    between atoms: _89  and  _90
REMARK   33  A    between atoms: _90  and  _91
REMARK   34  A    between atoms: _91  and  _92
REMARK   35  A    between atoms: _92  and  _93
REMARK   36  A    between atoms: _97  and  _99
REMARK   37  A    between atoms: _99  and  _100
REMARK   38  A    between atoms: _99  and  _102
REMARK   39  A    between atoms: _105  and  _107
REMARK   40  A    between atoms: _107  and  _108
REMARK   41  A    between atoms: _107  and  _110
REMARK   42  A    between atoms: _110  and  _111
REMARK   43  A    between atoms: _114  and  _116
REMARK   44  A    between atoms: _116  and  _117
REMARK   45  A    between atoms: _116  and  _119
REMARK   46  A    between atoms: _119  and  _120
REMARK   47  A    between atoms: _126  and  _128
REMARK   48  A    between atoms: _128  and  _129
REMARK   49  A    between atoms: _128  and  _131
REMARK   50  A    between atoms: _131  and  _132
REMARK   51  A    between atoms: _137  and  _139
REMARK   52  A    between atoms: _139  and  _140
REMARK   53  A    between atoms: _139  and  _142
REMARK   54  A    between atoms: _142  and  _143
REMARK   55  A    between atoms: _143  and  _144
REMARK   56  A    between atoms: _144  and  _145
REMARK   57  A    between atoms: _145  and  _146
REMARK   58  A    between atoms: _150  and  _152
REMARK   59  A    between atoms: _152  and  _153
REMARK   60  A    between atoms: _152  and  _155
REMARK   61  A    between atoms: _155  and  _156
REMARK   62  A    between atoms: _161  and  _162
REMARK   63  A    between atoms: _164  and  _166
REMARK   64  A    between atoms: _166  and  _167
REMARK   65  A    between atoms: _166  and  _169
REMARK   66  A    between atoms: _169  and  _170
REMARK   67  A    between atoms: _175  and  _177
REMARK   68  A    between atoms: _177  and  _178
REMARK   69  A    between atoms: _177  and  _180
REMARK   70  A    between atoms: _180  and  _181
REMARK   71  A    between atoms: _186  and  _188
REMARK   72  A    between atoms: _188  and  _189
REMARK   73  A    between atoms: _191  and  _193
REMARK   74  A    between atoms: _193  and  _194
REMARK   75  A    between atoms: _193  and  _196
REMARK   76  A    between atoms: _196  and  _197
REMARK   77  A    between atoms: _197  and  _198
REMARK   78  A    between atoms: _198  and  _199
REMARK   79  A    between atoms: _208  and  _210
REMARK   80  A    between atoms: _210  and  _211
REMARK   81  A    between atoms: _210  and  _213
REMARK   82  A    between atoms: _213  and  _214
REMARK   83  A    between atoms: _218  and  _219
REMARK   84  A    between atoms: _224  and  _226
REMARK   85  A    between atoms: _226  and  _227
REMARK   86  A    between atoms: _230  and  _232
REMARK   87  A    between atoms: _232  and  _233
REMARK   88  A    between atoms: _232  and  _235
REMARK   89  A    between atoms: _235  and  _236
REMARK   90  A    between atoms: _246  and  _248
REMARK   91  A    between atoms: _248  and  _249
REMARK   92  A    between atoms: _248  and  _251
REMARK   93  A    between atoms: _251  and  _252
REMARK   94  A    between atoms: _252  and  _253
REMARK   95  A    between atoms: _256  and  _258
REMARK   96  A    between atoms: _258  and  _259
REMARK   97  A    between atoms: _258  and  _261
REMARK   98  A    between atoms: _261  and  _262
REMARK   99  A    between atoms: _264  and  _266
REMARK  100  A    between atoms: _266  and  _267
REMARK  101  A    between atoms: _266  and  _269
REMARK  102  A    between atoms: _269  and  _270
REMARK  103  A    between atoms: _275  and  _277
REMARK  104  A    between atoms: _277  and  _278
REMARK  105  A    between atoms: _281  and  _283
REMARK  106  A    between atoms: _283  and  _284
REMARK  107  A    between atoms: _283  and  _286
REMARK  108  A    between atoms: _286  and  _287
REMARK  109  A    between atoms: _290  and  _292
REMARK  110  A    between atoms: _292  and  _293
REMARK  111  A    between atoms: _292  and  _295
REMARK  112  A    between atoms: _295  and  _296
REMARK  113  A    between atoms: _299  and  _301
REMARK  114  A    between atoms: _301  and  _302
REMARK  115  A    between atoms: _301  and  _304
REMARK  116  A    between atoms: _304  and  _305
REMARK  117  A    between atoms: _305  and  _306
REMARK  118  A    between atoms: _311  and  _313
REMARK  119  A    between atoms: _313  and  _314
REMARK  120  A    between atoms: _317  and  _319
REMARK  121  A    between atoms: _319  and  _320
REMARK  122  A    between atoms: _319  and  _322
REMARK  123  A    between atoms: _322  and  _323
REMARK  124  A    between atoms: _325  and  _327
REMARK  125  A    between atoms: _327  and  _328
REMARK  126  A    between atoms: _330  and  _332
REMARK  127  A    between atoms: _332  and  _333
REMARK  128  A    between atoms: _332  and  _335
REMARK  129  A    between atoms: _335  and  _336
REMARK  130  A    between atoms: _336  and  _337
REMARK  131  A    between atoms: _342  and  _344
REMARK  132  A    between atoms: _344  and  _345
REMARK  133  A    between atoms: _348  and  _349
REMARK  134  A    between atoms: _354  and  _356
REMARK  135  A    between atoms: _356  and  _357
REMARK  136  A    between atoms: _356  and  _359
REMARK  137  A    between atoms: _359  and  _360
REMARK  138  A    between atoms: _365  and  _366
REMARK  139  A    between atoms: _368  and  _370
REMARK  140  A    between atoms: _370  and  _371
REMARK  141  A    between atoms: _370  and  _373
REMARK  142  A    between atoms: _373  and  _374
REMARK  143  A    between atoms: _379  and  _380
REMARK  144  A    between atoms: _382  and  _384
REMARK  145  A    between atoms: _384  and  _385
REMARK  146  A    between atoms: _387  and  _389
REMARK  147  A    between atoms: _389  and  _390
REMARK  148  A    between atoms: _389  and  _392
REMARK  149  A    between atoms: _392  and  _393
REMARK  150  A    between atoms: _393  and  _394
REMARK  151  A    between atoms: _399  and  _401
REMARK  152  A    between atoms: _401  and  _402
REMARK  153  A    between atoms: _405  and  _407
REMARK  154  A    between atoms: _407  and  _408
REMARK  155  A    between atoms: _411  and  _413
REMARK  156  A    between atoms: _413  and  _414
REMARK  157  A    between atoms: _413  and  _416
REMARK  158  A    between atoms: _416  and  _417
REMARK  159  A    between atoms: _427  and  _429
REMARK  160  A    between atoms: _429  and  _430
REMARK  161  A    between atoms: _429  and  _432
REMARK  162  A    between atoms: _432  and  _433
REMARK  163  A    between atoms: _439  and  _441
REMARK  164  A    between atoms: _441  and  _442
REMARK  165  A    between atoms: _441  and  _444
REMARK  166  A    between atoms: _444  and  _445
REMARK  167  A    between atoms: _450  and  _451
REMARK  168  A    between atoms: _453  and  _455
REMARK  169  A    between atoms: _455  and  _456
REMARK  170  A    between atoms: _455  and  _458
REMARK  171  A    between atoms: _458  and  _459
REMARK  172  A    between atoms: _469  and  _471
REMARK  173  A    between atoms: _471  and  _472
REMARK  174  A    between atoms: _471  and  _474
REMARK  175  A    between atoms: _474  and  _475
REMARK  176  A    between atoms: _480  and  _481
REMARK  177  A    between atoms: _483  and  _485
REMARK  178  A    between atoms: _485  and  _486
REMARK  179  A    between atoms: _485  and  _488
REMARK  180  A    between atoms: _488  and  _489
REMARK  181  A    between atoms: _495  and  _497
REMARK  182  A    between atoms: _497  and  _498
REMARK  183  A    between atoms: _501  and  _503
REMARK  184  A    between atoms: _503  and  _504
REMARK  185  A    between atoms: _503  and  _506
REMARK  186  A    between atoms: _506  and  _507
REMARK  187  A    between atoms: _509  and  _511
REMARK  188  A    between atoms: _511  and  _512
REMARK  189  A    between atoms: _514  and  _516
REMARK  190  A    between atoms: _516  and  _517
REMARK  191  A    between atoms: _516  and  _519
REMARK  192  A    between atoms: _519  and  _520
REMARK  193  A    between atoms: _520  and  _521
REMARK  194  A    between atoms: _527  and  _528
REMARK  195  A    between atoms: _533  and  _535
REMARK  196  A    between atoms: _535  and  _536
REMARK  197  A    between atoms: _535  and  _538
REMARK  198  A    between atoms: _538  and  _539
REMARK  199  A    between atoms: _544  and  _545
REMARK  200  A    between atoms: _547  and  _549
REMARK  201  A    between atoms: _549  and  _550
REMARK  202  A    between atoms: _549  and  _552
REMARK  203  A    between atoms: _552  and  _553
REMARK  204  A    between atoms: _553  and  _554
REMARK  205  A    between atoms: _554  and  _555
REMARK  206  A    between atoms: _564  and  _566
REMARK  207  A    between atoms: _566  and  _567
REMARK  208  A    between atoms: _566  and  _569
REMARK  209  A    between atoms: _569  and  _570
REMARK  210  A    between atoms: _575  and  _576
REMARK  211  A    between atoms: _578  and  _580
REMARK  212  A    between atoms: _580  and  _581
REMARK  213  A    between atoms: _580  and  _583
REMARK  214  A    between atoms: _583  and  _584
REMARK  215  A    between atoms: _584  and  _585
REMARK  216  A    between atoms: _588  and  _590
REMARK  217  A    between atoms: _590  and  _591
REMARK  218  A    between atoms: _590  and  _593
REMARK  219  A    between atoms: _593  and  _594
REMARK  220  A    between atoms: _594  and  _595
REMARK  221  A    between atoms: _595  and  _596
REMARK                            x       y       z     vdW  Elec       q    Type
REMARK                         _______ _______ _______ _____ _____    ______ ____
ROOT
ATOM      1  O   HOH     1       3.260  10.442  -4.360  0.00  0.00    +0.000 OA
ENDROOT
TORSDOF 0
REMARK  Name = ../refined-set-2016/4zb8/4zb8_pocket.pdb
REMARK  221 active torsions:
REMARK  status: ('A' for Active; 'I' for Inactive)
REMARK    1  A    between atoms: _1  and  _3
REMARK    2  A    between atoms: _3  and  _4
REMARK    3  A    between atoms: _3  and  _6
REMARK    4  A    between atoms: _6  and  _7
REMARK    5  A    between atoms: _12  and  _13
REMARK    6  A    between atoms: _15  and  _17
REMARK    7  A    between atoms: _17  and  _18
REMARK    8  A    between atoms: _17  and  _20
REMARK    9  A    between atoms: _20  and  _21
REMARK   10  A    between atoms: _24  and  _26
REMARK   11  A    between atoms: _26  and  _27
REMARK   12  A    between atoms: _26  and  _29
REMARK   13  A    between atoms: _29  and  _30
REMARK   14  A    between atoms: _35  and  _37
REMARK   15  A    between atoms: _37  and  _38
REMARK   16  A    between atoms: _40  and  _42
REMARK   17  A    between atoms: _42  and  _43
REMARK   18  A    between atoms: _46  and  _47
REMARK   19  A    between atoms: _52  and  _54
REMARK   20  A    between atoms: _54  and  _55
REMARK   21  A    between atoms: _54  and  _57
REMARK   22  A    between atoms: _57  and  _58
REMARK   23  A    between atoms: _63  and  _65
REMARK   24  A    between atoms: _65  and  _66
REMARK   25  A    between atoms: _68  and  _70
REMARK   26  A    between atoms: _70  and  _71
REMARK   27  A    between atoms: _70  and  _73
REMARK   28  A    between atoms: _73  and  _74
REMARK   29  A    between atoms: _84  and  _86
REMARK   30  A    between atoms: _86  and  _87
REMARK   31  A    between atoms: _86  and  _89
REMARK   32  A    between atoms: _89  and  _90
REMARK   33  A    between atoms: _90  and  _91
REMARK   34  A    between atoms: _91  and  _92
REMARK   35  A    between atoms: _92  and  _93
REMARK   36  A    between atoms: _97  and  _99
REMARK   37  A    between atoms: _99  and  _100
REMARK   38  A    between atoms: _99  and  _102
REMARK   39  A    between atoms: _105  and  _107
REMARK   40  A    between atoms: _107  and  _108
REMARK   41  A    between atoms: _107  and  _110
REMARK   42  A    between atoms: _110  and  _111
REMARK   43  A    between atoms: _114  and  _116
REMARK   44  A    between atoms: _116  and  _117
REMARK   45  A    between atoms: _116  and  _119
REMARK   46  A    between atoms: _119  and  _120
REMARK   47  A    between atoms: _126  and  _128
REMARK   48  A    between atoms: _128  and  _129
REMARK   49  A    between atoms: _128  and  _131
REMARK   50  A    between atoms: _131  and  _132
REMARK   51  A    between atoms: _137  and  _139
REMARK   52  A    between atoms: _139  and  _140
REMARK   53  A    between atoms: _139  and  _142
REMARK   54  A    between atoms: _142  and  _143
REMARK   55  A    between atoms: _143  and  _144
REMARK   56  A    between atoms: _144  and  _145
REMARK   57  A    between atoms: _145  and  _146
REMARK   58  A    between atoms: _150  and  _152
REMARK   59  A    between atoms: _152  and  _153
REMARK   60  A    between atoms: _152  and  _155
REMARK   61  A    between atoms: _155  and  _156
REMARK   62  A    between atoms: _161  and  _162
REMARK   63  A    between atoms: _164  and  _166
REMARK   64  A    between atoms: _166  and  _167
REMARK   65  A    between atoms: _166  and  _169
REMARK   66  A    between atoms: _169  and  _170
REMARK   67  A    between atoms: _175  and  _177
REMARK   68  A    between atoms: _177  and  _178
REMARK   69  A    between atoms: _177  and  _180
REMARK   70  A    between atoms: _180  and  _181
REMARK   71  A    between atoms: _186  and  _188
REMARK   72  A    between atoms: _188  and  _189
REMARK   73  A    between atoms: _191  and  _193
REMARK   74  A    between atoms: _193  and  _194
REMARK   75  A    between atoms: _193  and  _196
REMARK   76  A    between atoms: _196  and  _197
REMARK   77  A    between atoms: _197  and  _198
REMARK   78  A    between atoms: _198  and  _199
REMARK   79  A    between atoms: _208  and  _210
REMARK   80  A    between atoms: _210  and  _211
REMARK   81  A    between atoms: _210  and  _213
REMARK   82  A    between atoms: _213  and  _214
REMARK   83  A    between atoms: _218  and  _219
REMARK   84  A    between atoms: _224  and  _226
REMARK   85  A    between atoms: _226  and  _227
REMARK   86  A    between atoms: _230  and  _232
REMARK   87  A    between atoms: _232  and  _233
REMARK   88  A    between atoms: _232  and  _235
REMARK   89  A    between atoms: _235  and  _236
REMARK   90  A    between atoms: _246  and  _248
REMARK   91  A    between atoms: _248  and  _249
REMARK   92  A    between atoms: _248  and  _251
REMARK   93  A    between atoms: _251  and  _252
REMARK   94  A    between atoms: _252  and  _253
REMARK   95  A    between atoms: _256  and  _258
REMARK   96  A    between atoms: _258  and  _259
REMARK   97  A    between atoms: _258  and  _261
REMARK   98  A    between atoms: _261  and  _262
REMARK   99  A    between atoms: _264  and  _266
REMARK  100  A    between atoms: _266  and  _267
REMARK  101  A    between atoms: _266  and  _269
REMARK  102  A    between atoms: _269  and  _270
REMARK  103  A    between atoms: _275  and  _277
REMARK  104  A    between atoms: _277  and  _278
REMARK  105  A    between atoms: _281  and  _283
REMARK  106  A    between atoms: _283  and  _284
REMARK  107  A    between atoms: _283  and  _286
REMARK  108  A    between atoms: _286  and  _287
REMARK  109  A    between atoms: _290  and  _292
REMARK  110  A    between atoms: _292  and  _293
REMARK  111  A    between atoms: _292  and  _295
REMARK  112  A    between atoms: _295  and  _296
REMARK  113  A    between atoms: _299  and  _301
REMARK  114  A    between atoms: _301  and  _302
REMARK  115  A    between atoms: _301  and  _304
REMARK  116  A    between atoms: _304  and  _305
REMARK  117  A    between atoms: _305  and  _306
REMARK  118  A    between atoms: _311  and  _313
REMARK  119  A    between atoms: _313  and  _314
REMARK  120  A    between atoms: _317  and  _319
REMARK  121  A    between atoms: _319  and  _320
REMARK  122  A    between atoms: _319  and  _322
REMARK  123  A    between atoms: _322  and  _323
REMARK  124  A    between atoms: _325  and  _327
REMARK  125  A    between atoms: _327  and  _328
REMARK  126  A    between atoms: _330  and  _332
REMARK  127  A    between atoms: _332  and  _333
REMARK  128  A    between atoms: _332  and  _335
REMARK  129  A    between atoms: _335  and  _336
REMARK  130  A    between atoms: _336  and  _337
REMARK  131  A    between atoms: _342  and  _344
REMARK  132  A    between atoms: _344  and  _345
REMARK  133  A    between atoms: _348  and  _349
REMARK  134  A    between atoms: _354  and  _356
REMARK  135  A    between atoms: _356  and  _357
REMARK  136  A    between atoms: _356  and  _359
REMARK  137  A    between atoms: _359  and  _360
REMARK  138  A    between atoms: _365  and  _366
REMARK  139  A    between atoms: _368  and  _370
REMARK  140  A    between atoms: _370  and  _371
REMARK  141  A    between atoms: _370  and  _373
REMARK  142  A    between atoms: _373  and  _374
REMARK  143  A    between atoms: _379  and  _380
REMARK  144  A    between atoms: _382  and  _384
REMARK  145  A    between atoms: _384  and  _385
REMARK  146  A    between atoms: _387  and  _389
REMARK  147  A    between atoms: _389  and  _390
REMARK  148  A    between atoms: _389  and  _392
REMARK  149  A    between atoms: _392  and  _393
REMARK  150  A    between atoms: _393  and  _394
REMARK  151  A    between atoms: _399  and  _401
REMARK  152  A    between atoms: _401  and  _402
REMARK  153  A    between atoms: _405  and  _407
REMARK  154  A    between atoms: _407  and  _408
REMARK  155  A    between atoms: _411  and  _413
REMARK  156  A    between atoms: _413  and  _414
REMARK  157  A    between atoms: _413  and  _416
REMARK  158  A    between atoms: _416  and  _417
REMARK  159  A    between atoms: _427  and  _429
REMARK  160  A    between atoms: _429  and  _430
REMARK  161  A    between atoms: _429  and  _432
REMARK  162  A    between atoms: _432  and  _433
REMARK  163  A    between atoms: _439  and  _441
REMARK  164  A    between atoms: _441  and  _442
REMARK  165  A    between atoms: _441  and  _444
REMARK  166  A    between atoms: _444  and  _445
REMARK  167  A    between atoms: _450  and  _451
REMARK  168  A    between atoms: _453  and  _455
REMARK  169  A    between atoms: _455  and  _456
REMARK  170  A    between atoms: _455  and  _458
REMARK  171  A    between atoms: _458  and  _459
REMARK  172  A    between atoms: _469  and  _471
REMARK  173  A    between atoms: _471  and  _472
REMARK  174  A    between atoms: _471  and  _474
REMARK  175  A    between atoms: _474  and  _475
REMARK  176  A    between atoms: _480  and  _481
REMARK  177  A    between atoms: _483  and  _485
REMARK  178  A    between atoms: _485  and  _486
REMARK  179  A    between atoms: _485  and  _488
REMARK  180  A    between atoms: _488  and  _489
REMARK  181  A    between atoms: _495  and  _497
REMARK  182  A    between atoms: _497  and  _498
REMARK  183  A    between atoms: _501  and  _503
REMARK  184  A    between atoms: _503  and  _504
REMARK  185  A    between atoms: _503  and  _506
REMARK  186  A    between atoms: _506  and  _507
REMARK  187  A    between atoms: _509  and  _511
REMARK  188  A    between atoms: _511  and  _512
REMARK  189  A    between atoms: _514  and  _516
REMARK  190  A    between atoms: _516  and  _517
REMARK  191  A    between atoms: _516  and  _519
REMARK  192  A    between atoms: _519  and  _520
REMARK  193  A    between atoms: _520  and  _521
REMARK  194  A    between atoms: _527  and  _528
REMARK  195  A    between atoms: _533  and  _535
REMARK  196  A    between atoms: _535  and  _536
REMARK  197  A    between atoms: _535  and  _538
REMARK  198  A    between atoms: _538  and  _539
REMARK  199  A    between atoms: _544  and  _545
REMARK  200  A    between atoms: _547  and  _549
REMARK  201  A    between atoms: _549  and  _550
REMARK  202  A    between atoms: _549  and  _552
REMARK  203  A    between atoms: _552  and  _553
REMARK  204  A    between atoms: _553  and  _554
REMARK  205  A    between atoms: _554  and  _555
REMARK  206  A    between atoms: _564  and  _566
REMARK  207  A    between atoms: _566  and  _567
REMARK  208  A    between atoms: _566  and  _569
REMARK  209  A    between atoms: _569  and  _570
REMARK  210  A    between atoms: _575  and  _576
REMARK  211  A    between atoms: _578  and  _580
REMARK  212  A    between atoms: _580  and  _581
REMARK  213  A    between atoms: _580  and  _583
REMARK  214  A    between atoms: _583  and  _584
REMARK  215  A    between atoms: _584  and  _585
REMARK  216  A    between atoms: _588  and  _590
REMARK  217  A    between atoms: _590  and  _591
REMARK  218  A    between atoms: _590  and  _593
REMARK  219  A    between atoms: _593  and  _594
REMARK  220  A    between atoms: _594  and  _595
REMARK  221  A    between atoms: _595  and  _596
REMARK                            x       y       z     vdW  Elec       q    Type
REMARK                         _______ _______ _______ _____ _____    ______ ____
ROOT
ATOM      1  O   HOH     1     -10.235   0.615 -11.388  0.00  0.00    +0.000 OA
ENDROOT
TORSDOF 0
REMARK  Name = ../refined-set-2016/4zb8/4zb8_pocket.pdb
REMARK  221 active torsions:
REMARK  status: ('A' for Active; 'I' for Inactive)
REMARK    1  A    between atoms: _1  and  _3
REMARK    2  A    between atoms: _3  and  _4
REMARK    3  A    between atoms: _3  and  _6
REMARK    4  A    between atoms: _6  and  _7
REMARK    5  A    between atoms: _12  and  _13
REMARK    6  A    between atoms: _15  and  _17
REMARK    7  A    between atoms: _17  and  _18
REMARK    8  A    between atoms: _17  and  _20
REMARK    9  A    between atoms: _20  and  _21
REMARK   10  A    between atoms: _24  and  _26
REMARK   11  A    between atoms: _26  and  _27
REMARK   12  A    between atoms: _26  and  _29
REMARK   13  A    between atoms: _29  and  _30
REMARK   14  A    between atoms: _35  and  _37
REMARK   15  A    between atoms: _37  and  _38
REMARK   16  A    between atoms: _40  and  _42
REMARK   17  A    between atoms: _42  and  _43
REMARK   18  A    between atoms: _46  and  _47
REMARK   19  A    between atoms: _52  and  _54
REMARK   20  A    between atoms: _54  and  _55
REMARK   21  A    between atoms: _54  and  _57
REMARK   22  A    between atoms: _57  and  _58
REMARK   23  A    between atoms: _63  and  _65
REMARK   24  A    between atoms: _65  and  _66
REMARK   25  A    between atoms: _68  and  _70
REMARK   26  A    between atoms: _70  and  _71
REMARK   27  A    between atoms: _70  and  _73
REMARK   28  A    between atoms: _73  and  _74
REMARK   29  A    between atoms: _84  and  _86
REMARK   30  A    between atoms: _86  and  _87
REMARK   31  A    between atoms: _86  and  _89
REMARK   32  A    between atoms: _89  and  _90
REMARK   33  A    between atoms: _90  and  _91
REMARK   34  A    between atoms: _91  and  _92
REMARK   35  A    between atoms: _92  and  _93
REMARK   36  A    between atoms: _97  and  _99
REMARK   37  A    between atoms: _99  and  _100
REMARK   38  A    between atoms: _99  and  _102
REMARK   39  A    between atoms: _105  and  _107
REMARK   40  A    between atoms: _107  and  _108
REMARK   41  A    between atoms: _107  and  _110
REMARK   42  A    between atoms: _110  and  _111
REMARK   43  A    between atoms: _114  and  _116
REMARK   44  A    between atoms: _116  and  _117
REMARK   45  A    between atoms: _116  and  _119
REMARK   46  A    between atoms: _119  and  _120
REMARK   47  A    between atoms: _126  and  _128
REMARK   48  A    between atoms: _128  and  _129
REMARK   49  A    between atoms: _128  and  _131
REMARK   50  A    between atoms: _131  and  _132
REMARK   51  A    between atoms: _137  and  _139
REMARK   52  A    between atoms: _139  and  _140
REMARK   53  A    between atoms: _139  and  _142
REMARK   54  A    between atoms: _142  and  _143
REMARK   55  A    between atoms: _143  and  _144
REMARK   56  A    between atoms: _144  and  _145
REMARK   57  A    between atoms: _145  and  _146
REMARK   58  A    between atoms: _150  and  _152
REMARK   59  A    between atoms: _152  and  _153
REMARK   60  A    between atoms: _152  and  _155
REMARK   61  A    between atoms: _155  and  _156
REMARK   62  A    between atoms: _161  and  _162
REMARK   63  A    between atoms: _164  and  _166
REMARK   64  A    between atoms: _166  and  _167
REMARK   65  A    between atoms: _166  and  _169
REMARK   66  A    between atoms: _169  and  _170
REMARK   67  A    between atoms: _175  and  _177
REMARK   68  A    between atoms: _177  and  _178
REMARK   69  A    between atoms: _177  and  _180
REMARK   70  A    between atoms: _180  and  _181
REMARK   71  A    between atoms: _186  and  _188
REMARK   72  A    between atoms: _188  and  _189
REMARK   73  A    between atoms: _191  and  _193
REMARK   74  A    between atoms: _193  and  _194
REMARK   75  A    between atoms: _193  and  _196
REMARK   76  A    between atoms: _196  and  _197
REMARK   77  A    between atoms: _197  and  _198
REMARK   78  A    between atoms: _198  and  _199
REMARK   79  A    between atoms: _208  and  _210
REMARK   80  A    between atoms: _210  and  _211
REMARK   81  A    between atoms: _210  and  _213
REMARK   82  A    between atoms: _213  and  _214
REMARK   83  A    between atoms: _218  and  _219
REMARK   84  A    between atoms: _224  and  _226
REMARK   85  A    between atoms: _226  and  _227
REMARK   86  A    between atoms: _230  and  _232
REMARK   87  A    between atoms: _232  and  _233
REMARK   88  A    between atoms: _232  and  _235
REMARK   89  A    between atoms: _235  and  _236
REMARK   90  A    between atoms: _246  and  _248
REMARK   91  A    between atoms: _248  and  _249
REMARK   92  A    between atoms: _248  and  _251
REMARK   93  A    between atoms: _251  and  _252
REMARK   94  A    between atoms: _252  and  _253
REMARK   95  A    between atoms: _256  and  _258
REMARK   96  A    between atoms: _258  and  _259
REMARK   97  A    between atoms: _258  and  _261
REMARK   98  A    between atoms: _261  and  _262
REMARK   99  A    between atoms: _264  and  _266
REMARK  100  A    between atoms: _266  and  _267
REMARK  101  A    between atoms: _266  and  _269
REMARK  102  A    between atoms: _269  and  _270
REMARK  103  A    between atoms: _275  and  _277
REMARK  104  A    between atoms: _277  and  _278
REMARK  105  A    between atoms: _281  and  _283
REMARK  106  A    between atoms: _283  and  _284
REMARK  107  A    between atoms: _283  and  _286
REMARK  108  A    between atoms: _286  and  _287
REMARK  109  A    between atoms: _290  and  _292
REMARK  110  A    between atoms: _292  and  _293
REMARK  111  A    between atoms: _292  and  _295
REMARK  112  A    between atoms: _295  and  _296
REMARK  113  A    between atoms: _299  and  _301
REMARK  114  A    between atoms: _301  and  _302
REMARK  115  A    between atoms: _301  and  _304
REMARK  116  A    between atoms: _304  and  _305
REMARK  117  A    between atoms: _305  and  _306
REMARK  118  A    between atoms: _311  and  _313
REMARK  119  A    between atoms: _313  and  _314
REMARK  120  A    between atoms: _317  and  _319
REMARK  121  A    between atoms: _319  and  _320
REMARK  122  A    between atoms: _319  and  _322
REMARK  123  A    between atoms: _322  and  _323
REMARK  124  A    between atoms: _325  and  _327
REMARK  125  A    between atoms: _327  and  _328
REMARK  126  A    between atoms: _330  and  _332
REMARK  127  A    between atoms: _332  and  _333
REMARK  128  A    between atoms: _332  and  _335
REMARK  129  A    between atoms: _335  and  _336
REMARK  130  A    between atoms: _336  and  _337
REMARK  131  A    between atoms: _342  and  _344
REMARK  132  A    between atoms: _344  and  _345
REMARK  133  A    between atoms: _348  and  _349
REMARK  134  A    between atoms: _354  and  _356
REMARK  135  A    between atoms: _356  and  _357
REMARK  136  A    between atoms: _356  and  _359
REMARK  137  A    between atoms: _359  and  _360
REMARK  138  A    between atoms: _365  and  _366
REMARK  139  A    between atoms: _368  and  _370
REMARK  140  A    between atoms: _370  and  _371
REMARK  141  A    between atoms: _370  and  _373
REMARK  142  A    between atoms: _373  and  _374
REMARK  143  A    between atoms: _379  and  _380
REMARK  144  A    between atoms: _382  and  _384
REMARK  145  A    between atoms: _384  and  _385
REMARK  146  A    between atoms: _387  and  _389
REMARK  147  A    between atoms: _389  and  _390
REMARK  148  A    between atoms: _389  and  _392
REMARK  149  A    between atoms: _392  and  _393
REMARK  150  A    between atoms: _393  and  _394
REMARK  151  A    between atoms: _399  and  _401
REMARK  152  A    between atoms: _401  and  _402
REMARK  153  A    between atoms: _405  and  _407
REMARK  154  A    between atoms: _407  and  _408
REMARK  155  A    between atoms: _411  and  _413
REMARK  156  A    between atoms: _413  and  _414
REMARK  157  A    between atoms: _413  and  _416
REMARK  158  A    between atoms: _416  and  _417
REMARK  159  A    between atoms: _427  and  _429
REMARK  160  A    between atoms: _429  and  _430
REMARK  161  A    between atoms: _429  and  _432
REMARK  162  A    between atoms: _432  and  _433
REMARK  163  A    between atoms: _439  and  _441
REMARK  164  A    between atoms: _441  and  _442
REMARK  165  A    between atoms: _441  and  _444
REMARK  166  A    between atoms: _444  and  _445
REMARK  167  A    between atoms: _450  and  _451
REMARK  168  A    between atoms: _453  and  _455
REMARK  169  A    between atoms: _455  and  _456
REMARK  170  A    between atoms: _455  and  _458
REMARK  171  A    between atoms: _458  and  _459
REMARK  172  A    between atoms: _469  and  _471
REMARK  173  A    between atoms: _471  and  _472
REMARK  174  A    between atoms: _471  and  _474
REMARK  175  A    between atoms: _474  and  _475
REMARK  176  A    between atoms: _480  and  _481
REMARK  177  A    between atoms: _483  and  _485
REMARK  178  A    between atoms: _485  and  _486
REMARK  179  A    between atoms: _485  and  _488
REMARK  180  A    between atoms: _488  and  _489
REMARK  181  A    between atoms: _495  and  _497
REMARK  182  A    between atoms: _497  and  _498
REMARK  183  A    between atoms: _501  and  _503
REMARK  184  A    between atoms: _503  and  _504
REMARK  185  A    between atoms: _503  and  _506
REMARK  186  A    between atoms: _506  and  _507
REMARK  187  A    between atoms: _509  and  _511
REMARK  188  A    between atoms: _511  and  _512
REMARK  189  A    between atoms: _514  and  _516
REMARK  190  A    between atoms: _516  and  _517
REMARK  191  A    between atoms: _516  and  _519
REMARK  192  A    between atoms: _519  and  _520
REMARK  193  A    between atoms: _520  and  _521
REMARK  194  A    between atoms: _527  and  _528
REMARK  195  A    between atoms: _533  and  _535
REMARK  196  A    between atoms: _535  and  _536
REMARK  197  A    between atoms: _535  and  _538
REMARK  198  A    between atoms: _538  and  _539
REMARK  199  A    between atoms: _544  and  _545
REMARK  200  A    between atoms: _547  and  _549
REMARK  201  A    between atoms: _549  and  _550
REMARK  202  A    between atoms: _549  and  _552
REMARK  203  A    between atoms: _552  and  _553
REMARK  204  A    between atoms: _553  and  _554
REMARK  205  A    between atoms: _554  and  _555
REMARK  206  A    between atoms: _564  and  _566
REMARK  207  A    between atoms: _566  and  _567
REMARK  208  A    between atoms: _566  and  _569
REMARK  209  A    between atoms: _569  and  _570
REMARK  210  A    between atoms: _575  and  _576
REMARK  211  A    between atoms: _578  and  _580
REMARK  212  A    between atoms: _580  and  _581
REMARK  213  A    between atoms: _580  and  _583
REMARK  214  A    between atoms: _583  and  _584
REMARK  215  A    between atoms: _584  and  _585
REMARK  216  A    between atoms: _588  and  _590
REMARK  217  A    between atoms: _590  and  _591
REMARK  218  A    between atoms: _590  and  _593
REMARK  219  A    between atoms: _593  and  _594
REMARK  220  A    between atoms: _594  and  _595
REMARK  221  A    between atoms: _595  and  _596
REMARK                            x       y       z     vdW  Elec       q    Type
REMARK                         _______ _______ _______ _____ _____    ______ ____
ROOT
ATOM      1  O   HOH     1      -7.739   7.833  -1.292  0.00  0.00    +0.000 OA
ENDROOT
TORSDOF 0
REMARK  Name = ../refined-set-2016/4zb8/4zb8_pocket.pdb
REMARK  221 active torsions:
REMARK  status: ('A' for Active; 'I' for Inactive)
REMARK    1  A    between atoms: _1  and  _3
REMARK    2  A    between atoms: _3  and  _4
REMARK    3  A    between atoms: _3  and  _6
REMARK    4  A    between atoms: _6  and  _7
REMARK    5  A    between atoms: _12  and  _13
REMARK    6  A    between atoms: _15  and  _17
REMARK    7  A    between atoms: _17  and  _18
REMARK    8  A    between atoms: _17  and  _20
REMARK    9  A    between atoms: _20  and  _21
REMARK   10  A    between atoms: _24  and  _26
REMARK   11  A    between atoms: _26  and  _27
REMARK   12  A    between atoms: _26  and  _29
REMARK   13  A    between atoms: _29  and  _30
REMARK   14  A    between atoms: _35  and  _37
REMARK   15  A    between atoms: _37  and  _38
REMARK   16  A    between atoms: _40  and  _42
REMARK   17  A    between atoms: _42  and  _43
REMARK   18  A    between atoms: _46  and  _47
REMARK   19  A    between atoms: _52  and  _54
REMARK   20  A    between atoms: _54  and  _55
REMARK   21  A    between atoms: _54  and  _57
REMARK   22  A    between atoms: _57  and  _58
REMARK   23  A    between atoms: _63  and  _65
REMARK   24  A    between atoms: _65  and  _66
REMARK   25  A    between atoms: _68  and  _70
REMARK   26  A    between atoms: _70  and  _71
REMARK   27  A    between atoms: _70  and  _73
REMARK   28  A    between atoms: _73  and  _74
REMARK   29  A    between atoms: _84  and  _86
REMARK   30  A    between atoms: _86  and  _87
REMARK   31  A    between atoms: _86  and  _89
REMARK   32  A    between atoms: _89  and  _90
REMARK   33  A    between atoms: _90  and  _91
REMARK   34  A    between atoms: _91  and  _92
REMARK   35  A    between atoms: _92  and  _93
REMARK   36  A    between atoms: _97  and  _99
REMARK   37  A    between atoms: _99  and  _100
REMARK   38  A    between atoms: _99  and  _102
REMARK   39  A    between atoms: _105  and  _107
REMARK   40  A    between atoms: _107  and  _108
REMARK   41  A    between atoms: _107  and  _110
REMARK   42  A    between atoms: _110  and  _111
REMARK   43  A    between atoms: _114  and  _116
REMARK   44  A    between atoms: _116  and  _117
REMARK   45  A    between atoms: _116  and  _119
REMARK   46  A    between atoms: _119  and  _120
REMARK   47  A    between atoms: _126  and  _128
REMARK   48  A    between atoms: _128  and  _129
REMARK   49  A    between atoms: _128  and  _131
REMARK   50  A    between atoms: _131  and  _132
REMARK   51  A    between atoms: _137  and  _139
REMARK   52  A    between atoms: _139  and  _140
REMARK   53  A    between atoms: _139  and  _142
REMARK   54  A    between atoms: _142  and  _143
REMARK   55  A    between atoms: _143  and  _144
REMARK   56  A    between atoms: _144  and  _145
REMARK   57  A    between atoms: _145  and  _146
REMARK   58  A    between atoms: _150  and  _152
REMARK   59  A    between atoms: _152  and  _153
REMARK   60  A    between atoms: _152  and  _155
REMARK   61  A    between atoms: _155  and  _156
REMARK   62  A    between atoms: _161  and  _162
REMARK   63  A    between atoms: _164  and  _166
REMARK   64  A    between atoms: _166  and  _167
REMARK   65  A    between atoms: _166  and  _169
REMARK   66  A    between atoms: _169  and  _170
REMARK   67  A    between atoms: _175  and  _177
REMARK   68  A    between atoms: _177  and  _178
REMARK   69  A    between atoms: _177  and  _180
REMARK   70  A    between atoms: _180  and  _181
REMARK   71  A    between atoms: _186  and  _188
REMARK   72  A    between atoms: _188  and  _189
REMARK   73  A    between atoms: _191  and  _193
REMARK   74  A    between atoms: _193  and  _194
REMARK   75  A    between atoms: _193  and  _196
REMARK   76  A    between atoms: _196  and  _197
REMARK   77  A    between atoms: _197  and  _198
REMARK   78  A    between atoms: _198  and  _199
REMARK   79  A    between atoms: _208  and  _210
REMARK   80  A    between atoms: _210  and  _211
REMARK   81  A    between atoms: _210  and  _213
REMARK   82  A    between atoms: _213  and  _214
REMARK   83  A    between atoms: _218  and  _219
REMARK   84  A    between atoms: _224  and  _226
REMARK   85  A    between atoms: _226  and  _227
REMARK   86  A    between atoms: _230  and  _232
REMARK   87  A    between atoms: _232  and  _233
REMARK   88  A    between atoms: _232  and  _235
REMARK   89  A    between atoms: _235  and  _236
REMARK   90  A    between atoms: _246  and  _248
REMARK   91  A    between atoms: _248  and  _249
REMARK   92  A    between atoms: _248  and  _251
REMARK   93  A    between atoms: _251  and  _252
REMARK   94  A    between atoms: _252  and  _253
REMARK   95  A    between atoms: _256  and  _258
REMARK   96  A    between atoms: _258  and  _259
REMARK   97  A    between atoms: _258  and  _261
REMARK   98  A    between atoms: _261  and  _262
REMARK   99  A    between atoms: _264  and  _266
REMARK  100  A    between atoms: _266  and  _267
REMARK  101  A    between atoms: _266  and  _269
REMARK  102  A    between atoms: _269  and  _270
REMARK  103  A    between atoms: _275  and  _277
REMARK  104  A    between atoms: _277  and  _278
REMARK  105  A    between atoms: _281  and  _283
REMARK  106  A    between atoms: _283  and  _284
REMARK  107  A    between atoms: _283  and  _286
REMARK  108  A    between atoms: _286  and  _287
REMARK  109  A    between atoms: _290  and  _292
REMARK  110  A    between atoms: _292  and  _293
REMARK  111  A    between atoms: _292  and  _295
REMARK  112  A    between atoms: _295  and  _296
REMARK  113  A    between atoms: _299  and  _301
REMARK  114  A    between atoms: _301  and  _302
REMARK  115  A    between atoms: _301  and  _304
REMARK  116  A    between atoms: _304  and  _305
REMARK  117  A    between atoms: _305  and  _306
REMARK  118  A    between atoms: _311  and  _313
REMARK  119  A    between atoms: _313  and  _314
REMARK  120  A    between atoms: _317  and  _319
REMARK  121  A    between atoms: _319  and  _320
REMARK  122  A    between atoms: _319  and  _322
REMARK  123  A    between atoms: _322  and  _323
REMARK  124  A    between atoms: _325  and  _327
REMARK  125  A    between atoms: _327  and  _328
REMARK  126  A    between atoms: _330  and  _332
REMARK  127  A    between atoms: _332  and  _333
REMARK  128  A    between atoms: _332  and  _335
REMARK  129  A    between atoms: _335  and  _336
REMARK  130  A    between atoms: _336  and  _337
REMARK  131  A    between atoms: _342  and  _344
REMARK  132  A    between atoms: _344  and  _345
REMARK  133  A    between atoms: _348  and  _349
REMARK  134  A    between atoms: _354  and  _356
REMARK  135  A    between atoms: _356  and  _357
REMARK  136  A    between atoms: _356  and  _359
REMARK  137  A    between atoms: _359  and  _360
REMARK  138  A    between atoms: _365  and  _366
REMARK  139  A    between atoms: _368  and  _370
REMARK  140  A    between atoms: _370  and  _371
REMARK  141  A    between atoms: _370  and  _373
REMARK  142  A    between atoms: _373  and  _374
REMARK  143  A    between atoms: _379  and  _380
REMARK  144  A    between atoms: _382  and  _384
REMARK  145  A    between atoms: _384  and  _385
REMARK  146  A    between atoms: _387  and  _389
REMARK  147  A    between atoms: _389  and  _390
REMARK  148  A    between atoms: _389  and  _392
REMARK  149  A    between atoms: _392  and  _393
REMARK  150  A    between atoms: _393  and  _394
REMARK  151  A    between atoms: _399  and  _401
REMARK  152  A    between atoms: _401  and  _402
REMARK  153  A    between atoms: _405  and  _407
REMARK  154  A    between atoms: _407  and  _408
REMARK  155  A    between atoms: _411  and  _413
REMARK  156  A    between atoms: _413  and  _414
REMARK  157  A    between atoms: _413  and  _416
REMARK  158  A    between atoms: _416  and  _417
REMARK  159  A    between atoms: _427  and  _429
REMARK  160  A    between atoms: _429  and  _430
REMARK  161  A    between atoms: _429  and  _432
REMARK  162  A    between atoms: _432  and  _433
REMARK  163  A    between atoms: _439  and  _441
REMARK  164  A    between atoms: _441  and  _442
REMARK  165  A    between atoms: _441  and  _444
REMARK  166  A    between atoms: _444  and  _445
REMARK  167  A    between atoms: _450  and  _451
REMARK  168  A    between atoms: _453  and  _455
REMARK  169  A    between atoms: _455  and  _456
REMARK  170  A    between atoms: _455  and  _458
REMARK  171  A    between atoms: _458  and  _459
REMARK  172  A    between atoms: _469  and  _471
REMARK  173  A    between atoms: _471  and  _472
REMARK  174  A    between atoms: _471  and  _474
REMARK  175  A    between atoms: _474  and  _475
REMARK  176  A    between atoms: _480  and  _481
REMARK  177  A    between atoms: _483  and  _485
REMARK  178  A    between atoms: _485  and  _486
REMARK  179  A    between atoms: _485  and  _488
REMARK  180  A    between atoms: _488  and  _489
REMARK  181  A    between atoms: _495  and  _497
REMARK  182  A    between atoms: _497  and  _498
REMARK  183  A    between atoms: _501  and  _503
REMARK  184  A    between atoms: _503  and  _504
REMARK  185  A    between atoms: _503  and  _506
REMARK  186  A    between atoms: _506  and  _507
REMARK  187  A    between atoms: _509  and  _511
REMARK  188  A    between atoms: _511  and  _512
REMARK  189  A    between atoms: _514  and  _516
REMARK  190  A    between atoms: _516  and  _517
REMARK  191  A    between atoms: _516  and  _519
REMARK  192  A    between atoms: _519  and  _520
REMARK  193  A    between atoms: _520  and  _521
REMARK  194  A    between atoms: _527  and  _528
REMARK  195  A    between atoms: _533  and  _535
REMARK  196  A    between atoms: _535  and  _536
REMARK  197  A    between atoms: _535  and  _538
REMARK  198  A    between atoms: _538  and  _539
REMARK  199  A    between atoms: _544  and  _545
REMARK  200  A    between atoms: _547  and  _549
REMARK  201  A    between atoms: _549  and  _550
REMARK  202  A    between atoms: _549  and  _552
REMARK  203  A    between atoms: _552  and  _553
REMARK  204  A    between atoms: _553  and  _554
REMARK  205  A    between atoms: _554  and  _555
REMARK  206  A    between atoms: _564  and  _566
REMARK  207  A    between atoms: _566  and  _567
REMARK  208  A    between atoms: _566  and  _569
REMARK  209  A    between atoms: _569  and  _570
REMARK  210  A    between atoms: _575  and  _576
REMARK  211  A    between atoms: _578  and  _580
REMARK  212  A    between atoms: _580  and  _581
REMARK  213  A    between atoms: _580  and  _583
REMARK  214  A    between atoms: _583  and  _584
REMARK  215  A    between atoms: _584  and  _585
REMARK  216  A    between atoms: _588  and  _590
REMARK  217  A    between atoms: _590  and  _591
REMARK  218  A    between atoms: _590  and  _593
REMARK  219  A    between atoms: _593  and  _594
REMARK  220  A    between atoms: _594  and  _595
REMARK  221  A    between atoms: _595  and  _596
REMARK                            x       y       z     vdW  Elec       q    Type
REMARK                         _______ _______ _______ _____ _____    ______ ____
ROOT
ATOM      1  O   HOH     1       0.631   8.111  -1.710  0.00  0.00    +0.000 OA
ENDROOT
TORSDOF 0
REMARK  Name = ../refined-set-2016/4zb8/4zb8_pocket.pdb
REMARK  221 active torsions:
REMARK  status: ('A' for Active; 'I' for Inactive)
REMARK    1  A    between atoms: _1  and  _3
REMARK    2  A    between atoms: _3  and  _4
REMARK    3  A    between atoms: _3  and  _6
REMARK    4  A    between atoms: _6  and  _7
REMARK    5  A    between atoms: _12  and  _13
REMARK    6  A    between atoms: _15  and  _17
REMARK    7  A    between atoms: _17  and  _18
REMARK    8  A    between atoms: _17  and  _20
REMARK    9  A    between atoms: _20  and  _21
REMARK   10  A    between atoms: _24  and  _26
REMARK   11  A    between atoms: _26  and  _27
REMARK   12  A    between atoms: _26  and  _29
REMARK   13  A    between atoms: _29  and  _30
REMARK   14  A    between atoms: _35  and  _37
REMARK   15  A    between atoms: _37  and  _38
REMARK   16  A    between atoms: _40  and  _42
REMARK   17  A    between atoms: _42  and  _43
REMARK   18  A    between atoms: _46  and  _47
REMARK   19  A    between atoms: _52  and  _54
REMARK   20  A    between atoms: _54  and  _55
REMARK   21  A    between atoms: _54  and  _57
REMARK   22  A    between atoms: _57  and  _58
REMARK   23  A    between atoms: _63  and  _65
REMARK   24  A    between atoms: _65  and  _66
REMARK   25  A    between atoms: _68  and  _70
REMARK   26  A    between atoms: _70  and  _71
REMARK   27  A    between atoms: _70  and  _73
REMARK   28  A    between atoms: _73  and  _74
REMARK   29  A    between atoms: _84  and  _86
REMARK   30  A    between atoms: _86  and  _87
REMARK   31  A    between atoms: _86  and  _89
REMARK   32  A    between atoms: _89  and  _90
REMARK   33  A    between atoms: _90  and  _91
REMARK   34  A    between atoms: _91  and  _92
REMARK   35  A    between atoms: _92  and  _93
REMARK   36  A    between atoms: _97  and  _99
REMARK   37  A    between atoms: _99  and  _100
REMARK   38  A    between atoms: _99  and  _102
REMARK   39  A    between atoms: _105  and  _107
REMARK   40  A    between atoms: _107  and  _108
REMARK   41  A    between atoms: _107  and  _110
REMARK   42  A    between atoms: _110  and  _111
REMARK   43  A    between atoms: _114  and  _116
REMARK   44  A    between atoms: _116  and  _117
REMARK   45  A    between atoms: _116  and  _119
REMARK   46  A    between atoms: _119  and  _120
REMARK   47  A    between atoms: _126  and  _128
REMARK   48  A    between atoms: _128  and  _129
REMARK   49  A    between atoms: _128  and  _131
REMARK   50  A    between atoms: _131  and  _132
REMARK   51  A    between atoms: _137  and  _139
REMARK   52  A    between atoms: _139  and  _140
REMARK   53  A    between atoms: _139  and  _142
REMARK   54  A    between atoms: _142  and  _143
REMARK   55  A    between atoms: _143  and  _144
REMARK   56  A    between atoms: _144  and  _145
REMARK   57  A    between atoms: _145  and  _146
REMARK   58  A    between atoms: _150  and  _152
REMARK   59  A    between atoms: _152  and  _153
REMARK   60  A    between atoms: _152  and  _155
REMARK   61  A    between atoms: _155  and  _156
REMARK   62  A    between atoms: _161  and  _162
REMARK   63  A    between atoms: _164  and  _166
REMARK   64  A    between atoms: _166  and  _167
REMARK   65  A    between atoms: _166  and  _169
REMARK   66  A    between atoms: _169  and  _170
REMARK   67  A    between atoms: _175  and  _177
REMARK   68  A    between atoms: _177  and  _178
REMARK   69  A    between atoms: _177  and  _180
REMARK   70  A    between atoms: _180  and  _181
REMARK   71  A    between atoms: _186  and  _188
REMARK   72  A    between atoms: _188  and  _189
REMARK   73  A    between atoms: _191  and  _193
REMARK   74  A    between atoms: _193  and  _194
REMARK   75  A    between atoms: _193  and  _196
REMARK   76  A    between atoms: _196  and  _197
REMARK   77  A    between atoms: _197  and  _198
REMARK   78  A    between atoms: _198  and  _199
REMARK   79  A    between atoms: _208  and  _210
REMARK   80  A    between atoms: _210  and  _211
REMARK   81  A    between atoms: _210  and  _213
REMARK   82  A    between atoms: _213  and  _214
REMARK   83  A    between atoms: _218  and  _219
REMARK   84  A    between atoms: _224  and  _226
REMARK   85  A    between atoms: _226  and  _227
REMARK   86  A    between atoms: _230  and  _232
REMARK   87  A    between atoms: _232  and  _233
REMARK   88  A    between atoms: _232  and  _235
REMARK   89  A    between atoms: _235  and  _236
REMARK   90  A    between atoms: _246  and  _248
REMARK   91  A    between atoms: _248  and  _249
REMARK   92  A    between atoms: _248  and  _251
REMARK   93  A    between atoms: _251  and  _252
REMARK   94  A    between atoms: _252  and  _253
REMARK   95  A    between atoms: _256  and  _258
REMARK   96  A    between atoms: _258  and  _259
REMARK   97  A    between atoms: _258  and  _261
REMARK   98  A    between atoms: _261  and  _262
REMARK   99  A    between atoms: _264  and  _266
REMARK  100  A    between atoms: _266  and  _267
REMARK  101  A    between atoms: _266  and  _269
REMARK  102  A    between atoms: _269  and  _270
REMARK  103  A    between atoms: _275  and  _277
REMARK  104  A    between atoms: _277  and  _278
REMARK  105  A    between atoms: _281  and  _283
REMARK  106  A    between atoms: _283  and  _284
REMARK  107  A    between atoms: _283  and  _286
REMARK  108  A    between atoms: _286  and  _287
REMARK  109  A    between atoms: _290  and  _292
REMARK  110  A    between atoms: _292  and  _293
REMARK  111  A    between atoms: _292  and  _295
REMARK  112  A    between atoms: _295  and  _296
REMARK  113  A    between atoms: _299  and  _301
REMARK  114  A    between atoms: _301  and  _302
REMARK  115  A    between atoms: _301  and  _304
REMARK  116  A    between atoms: _304  and  _305
REMARK  117  A    between atoms: _305  and  _306
REMARK  118  A    between atoms: _311  and  _313
REMARK  119  A    between atoms: _313  and  _314
REMARK  120  A    between atoms: _317  and  _319
REMARK  121  A    between atoms: _319  and  _320
REMARK  122  A    between atoms: _319  and  _322
REMARK  123  A    between atoms: _322  and  _323
REMARK  124  A    between atoms: _325  and  _327
REMARK  125  A    between atoms: _327  and  _328
REMARK  126  A    between atoms: _330  and  _332
REMARK  127  A    between atoms: _332  and  _333
REMARK  128  A    between atoms: _332  and  _335
REMARK  129  A    between atoms: _335  and  _336
REMARK  130  A    between atoms: _336  and  _337
REMARK  131  A    between atoms: _342  and  _344
REMARK  132  A    between atoms: _344  and  _345
REMARK  133  A    between atoms: _348  and  _349
REMARK  134  A    between atoms: _354  and  _356
REMARK  135  A    between atoms: _356  and  _357
REMARK  136  A    between atoms: _356  and  _359
REMARK  137  A    between atoms: _359  and  _360
REMARK  138  A    between atoms: _365  and  _366
REMARK  139  A    between atoms: _368  and  _370
REMARK  140  A    between atoms: _370  and  _371
REMARK  141  A    between atoms: _370  and  _373
REMARK  142  A    between atoms: _373  and  _374
REMARK  143  A    between atoms: _379  and  _380
REMARK  144  A    between atoms: _382  and  _384
REMARK  145  A    between atoms: _384  and  _385
REMARK  146  A    between atoms: _387  and  _389
REMARK  147  A    between atoms: _389  and  _390
REMARK  148  A    between atoms: _389  and  _392
REMARK  149  A    between atoms: _392  and  _393
REMARK  150  A    between atoms: _393  and  _394
REMARK  151  A    between atoms: _399  and  _401
REMARK  152  A    between atoms: _401  and  _402
REMARK  153  A    between atoms: _405  and  _407
REMARK  154  A    between atoms: _407  and  _408
REMARK  155  A    between atoms: _411  and  _413
REMARK  156  A    between atoms: _413  and  _414
REMARK  157  A    between atoms: _413  and  _416
REMARK  158  A    between atoms: _416  and  _417
REMARK  159  A    between atoms: _427  and  _429
REMARK  160  A    between atoms: _429  and  _430
REMARK  161  A    between atoms: _429  and  _432
REMARK  162  A    between atoms: _432  and  _433
REMARK  163  A    between atoms: _439  and  _441
REMARK  164  A    between atoms: _441  and  _442
REMARK  165  A    between atoms: _441  and  _444
REMARK  166  A    between atoms: _444  and  _445
REMARK  167  A    between atoms: _450  and  _451
REMARK  168  A    between atoms: _453  and  _455
REMARK  169  A    between atoms: _455  and  _456
REMARK  170  A    between atoms: _455  and  _458
REMARK  171  A    between atoms: _458  and  _459
REMARK  172  A    between atoms: _469  and  _471
REMARK  173  A    between atoms: _471  and  _472
REMARK  174  A    between atoms: _471  and  _474
REMARK  175  A    between atoms: _474  and  _475
REMARK  176  A    between atoms: _480  and  _481
REMARK  177  A    between atoms: _483  and  _485
REMARK  178  A    between atoms: _485  and  _486
REMARK  179  A    between atoms: _485  and  _488
REMARK  180  A    between atoms: _488  and  _489
REMARK  181  A    between atoms: _495  and  _497
REMARK  182  A    between atoms: _497  and  _498
REMARK  183  A    between atoms: _501  and  _503
REMARK  184  A    between atoms: _503  and  _504
REMARK  185  A    between atoms: _503  and  _506
REMARK  186  A    between atoms: _506  and  _507
REMARK  187  A    between atoms: _509  and  _511
REMARK  188  A    between atoms: _511  and  _512
REMARK  189  A    between atoms: _514  and  _516
REMARK  190  A    between atoms: _516  and  _517
REMARK  191  A    between atoms: _516  and  _519
REMARK  192  A    between atoms: _519  and  _520
REMARK  193  A    between atoms: _520  and  _521
REMARK  194  A    between atoms: _527  and  _528
REMARK  195  A    between atoms: _533  and  _535
REMARK  196  A    between atoms: _535  and  _536
REMARK  197  A    between atoms: _535  and  _538
REMARK  198  A    between atoms: _538  and  _539
REMARK  199  A    between atoms: _544  and  _545
REMARK  200  A    between atoms: _547  and  _549
REMARK  201  A    between atoms: _549  and  _550
REMARK  202  A    between atoms: _549  and  _552
REMARK  203  A    between atoms: _552  and  _553
REMARK  204  A    between atoms: _553  and  _554
REMARK  205  A    between atoms: _554  and  _555
REMARK  206  A    between atoms: _564  and  _566
REMARK  207  A    between atoms: _566  and  _567
REMARK  208  A    between atoms: _566  and  _569
REMARK  209  A    between atoms: _569  and  _570
REMARK  210  A    between atoms: _575  and  _576
REMARK  211  A    between atoms: _578  and  _580
REMARK  212  A    between atoms: _580  and  _581
REMARK  213  A    between atoms: _580  and  _583
REMARK  214  A    between atoms: _583  and  _584
REMARK  215  A    between atoms: _584  and  _585
REMARK  216  A    between atoms: _588  and  _590
REMARK  217  A    between atoms: _590  and  _591
REMARK  218  A    between atoms: _590  and  _593
REMARK  219  A    between atoms: _593  and  _594
REMARK  220  A    between atoms: _594  and  _595
REMARK  221  A    between atoms: _595  and  _596
REMARK                            x       y       z     vdW  Elec       q    Type
REMARK                         _______ _______ _______ _____ _____    ______ ____
ROOT
ATOM      1  O   HOH     1      -0.778  12.229  -9.201  0.00  0.00    +0.000 OA
ENDROOT
TORSDOF 0
REMARK  Name = ../refined-set-2016/4zb8/4zb8_pocket.pdb
REMARK  221 active torsions:
REMARK  status: ('A' for Active; 'I' for Inactive)
REMARK    1  A    between atoms: _1  and  _3
REMARK    2  A    between atoms: _3  and  _4
REMARK    3  A    between atoms: _3  and  _6
REMARK    4  A    between atoms: _6  and  _7
REMARK    5  A    between atoms: _12  and  _13
REMARK    6  A    between atoms: _15  and  _17
REMARK    7  A    between atoms: _17  and  _18
REMARK    8  A    between atoms: _17  and  _20
REMARK    9  A    between atoms: _20  and  _21
REMARK   10  A    between atoms: _24  and  _26
REMARK   11  A    between atoms: _26  and  _27
REMARK   12  A    between atoms: _26  and  _29
REMARK   13  A    between atoms: _29  and  _30
REMARK   14  A    between atoms: _35  and  _37
REMARK   15  A    between atoms: _37  and  _38
REMARK   16  A    between atoms: _40  and  _42
REMARK   17  A    between atoms: _42  and  _43
REMARK   18  A    between atoms: _46  and  _47
REMARK   19  A    between atoms: _52  and  _54
REMARK   20  A    between atoms: _54  and  _55
REMARK   21  A    between atoms: _54  and  _57
REMARK   22  A    between atoms: _57  and  _58
REMARK   23  A    between atoms: _63  and  _65
REMARK   24  A    between atoms: _65  and  _66
REMARK   25  A    between atoms: _68  and  _70
REMARK   26  A    between atoms: _70  and  _71
REMARK   27  A    between atoms: _70  and  _73
REMARK   28  A    between atoms: _73  and  _74
REMARK   29  A    between atoms: _84  and  _86
REMARK   30  A    between atoms: _86  and  _87
REMARK   31  A    between atoms: _86  and  _89
REMARK   32  A    between atoms: _89  and  _90
REMARK   33  A    between atoms: _90  and  _91
REMARK   34  A    between atoms: _91  and  _92
REMARK   35  A    between atoms: _92  and  _93
REMARK   36  A    between atoms: _97  and  _99
REMARK   37  A    between atoms: _99  and  _100
REMARK   38  A    between atoms: _99  and  _102
REMARK   39  A    between atoms: _105  and  _107
REMARK   40  A    between atoms: _107  and  _108
REMARK   41  A    between atoms: _107  and  _110
REMARK   42  A    between atoms: _110  and  _111
REMARK   43  A    between atoms: _114  and  _116
REMARK   44  A    between atoms: _116  and  _117
REMARK   45  A    between atoms: _116  and  _119
REMARK   46  A    between atoms: _119  and  _120
REMARK   47  A    between atoms: _126  and  _128
REMARK   48  A    between atoms: _128  and  _129
REMARK   49  A    between atoms: _128  and  _131
REMARK   50  A    between atoms: _131  and  _132
REMARK   51  A    between atoms: _137  and  _139
REMARK   52  A    between atoms: _139  and  _140
REMARK   53  A    between atoms: _139  and  _142
REMARK   54  A    between atoms: _142  and  _143
REMARK   55  A    between atoms: _143  and  _144
REMARK   56  A    between atoms: _144  and  _145
REMARK   57  A    between atoms: _145  and  _146
REMARK   58  A    between atoms: _150  and  _152
REMARK   59  A    between atoms: _152  and  _153
REMARK   60  A    between atoms: _152  and  _155
REMARK   61  A    between atoms: _155  and  _156
REMARK   62  A    between atoms: _161  and  _162
REMARK   63  A    between atoms: _164  and  _166
REMARK   64  A    between atoms: _166  and  _167
REMARK   65  A    between atoms: _166  and  _169
REMARK   66  A    between atoms: _169  and  _170
REMARK   67  A    between atoms: _175  and  _177
REMARK   68  A    between atoms: _177  and  _178
REMARK   69  A    between atoms: _177  and  _180
REMARK   70  A    between atoms: _180  and  _181
REMARK   71  A    between atoms: _186  and  _188
REMARK   72  A    between atoms: _188  and  _189
REMARK   73  A    between atoms: _191  and  _193
REMARK   74  A    between atoms: _193  and  _194
REMARK   75  A    between atoms: _193  and  _196
REMARK   76  A    between atoms: _196  and  _197
REMARK   77  A    between atoms: _197  and  _198
REMARK   78  A    between atoms: _198  and  _199
REMARK   79  A    between atoms: _208  and  _210
REMARK   80  A    between atoms: _210  and  _211
REMARK   81  A    between atoms: _210  and  _213
REMARK   82  A    between atoms: _213  and  _214
REMARK   83  A    between atoms: _218  and  _219
REMARK   84  A    between atoms: _224  and  _226
REMARK   85  A    between atoms: _226  and  _227
REMARK   86  A    between atoms: _230  and  _232
REMARK   87  A    between atoms: _232  and  _233
REMARK   88  A    between atoms: _232  and  _235
REMARK   89  A    between atoms: _235  and  _236
REMARK   90  A    between atoms: _246  and  _248
REMARK   91  A    between atoms: _248  and  _249
REMARK   92  A    between atoms: _248  and  _251
REMARK   93  A    between atoms: _251  and  _252
REMARK   94  A    between atoms: _252  and  _253
REMARK   95  A    between atoms: _256  and  _258
REMARK   96  A    between atoms: _258  and  _259
REMARK   97  A    between atoms: _258  and  _261
REMARK   98  A    between atoms: _261  and  _262
REMARK   99  A    between atoms: _264  and  _266
REMARK  100  A    between atoms: _266  and  _267
REMARK  101  A    between atoms: _266  and  _269
REMARK  102  A    between atoms: _269  and  _270
REMARK  103  A    between atoms: _275  and  _277
REMARK  104  A    between atoms: _277  and  _278
REMARK  105  A    between atoms: _281  and  _283
REMARK  106  A    between atoms: _283  and  _284
REMARK  107  A    between atoms: _283  and  _286
REMARK  108  A    between atoms: _286  and  _287
REMARK  109  A    between atoms: _290  and  _292
REMARK  110  A    between atoms: _292  and  _293
REMARK  111  A    between atoms: _292  and  _295
REMARK  112  A    between atoms: _295  and  _296
REMARK  113  A    between atoms: _299  and  _301
REMARK  114  A    between atoms: _301  and  _302
REMARK  115  A    between atoms: _301  and  _304
REMARK  116  A    between atoms: _304  and  _305
REMARK  117  A    between atoms: _305  and  _306
REMARK  118  A    between atoms: _311  and  _313
REMARK  119  A    between atoms: _313  and  _314
REMARK  120  A    between atoms: _317  and  _319
REMARK  121  A    between atoms: _319  and  _320
REMARK  122  A    between atoms: _319  and  _322
REMARK  123  A    between atoms: _322  and  _323
REMARK  124  A    between atoms: _325  and  _327
REMARK  125  A    between atoms: _327  and  _328
REMARK  126  A    between atoms: _330  and  _332
REMARK  127  A    between atoms: _332  and  _333
REMARK  128  A    between atoms: _332  and  _335
REMARK  129  A    between atoms: _335  and  _336
REMARK  130  A    between atoms: _336  and  _337
REMARK  131  A    between atoms: _342  and  _344
REMARK  132  A    between atoms: _344  and  _345
REMARK  133  A    between atoms: _348  and  _349
REMARK  134  A    between atoms: _354  and  _356
REMARK  135  A    between atoms: _356  and  _357
REMARK  136  A    between atoms: _356  and  _359
REMARK  137  A    between atoms: _359  and  _360
REMARK  138  A    between atoms: _365  and  _366
REMARK  139  A    between atoms: _368  and  _370
REMARK  140  A    between atoms: _370  and  _371
REMARK  141  A    between atoms: _370  and  _373
REMARK  142  A    between atoms: _373  and  _374
REMARK  143  A    between atoms: _379  and  _380
REMARK  144  A    between atoms: _382  and  _384
REMARK  145  A    between atoms: _384  and  _385
REMARK  146  A    between atoms: _387  and  _389
REMARK  147  A    between atoms: _389  and  _390
REMARK  148  A    between atoms: _389  and  _392
REMARK  149  A    between atoms: _392  and  _393
REMARK  150  A    between atoms: _393  and  _394
REMARK  151  A    between atoms: _399  and  _401
REMARK  152  A    between atoms: _401  and  _402
REMARK  153  A    between atoms: _405  and  _407
REMARK  154  A    between atoms: _407  and  _408
REMARK  155  A    between atoms: _411  and  _413
REMARK  156  A    between atoms: _413  and  _414
REMARK  157  A    between atoms: _413  and  _416
REMARK  158  A    between atoms: _416  and  _417
REMARK  159  A    between atoms: _427  and  _429
REMARK  160  A    between atoms: _429  and  _430
REMARK  161  A    between atoms: _429  and  _432
REMARK  162  A    between atoms: _432  and  _433
REMARK  163  A    between atoms: _439  and  _441
REMARK  164  A    between atoms: _441  and  _442
REMARK  165  A    between atoms: _441  and  _444
REMARK  166  A    between atoms: _444  and  _445
REMARK  167  A    between atoms: _450  and  _451
REMARK  168  A    between atoms: _453  and  _455
REMARK  169  A    between atoms: _455  and  _456
REMARK  170  A    between atoms: _455  and  _458
REMARK  171  A    between atoms: _458  and  _459
REMARK  172  A    between atoms: _469  and  _471
REMARK  173  A    between atoms: _471  and  _472
REMARK  174  A    between atoms: _471  and  _474
REMARK  175  A    between atoms: _474  and  _475
REMARK  176  A    between atoms: _480  and  _481
REMARK  177  A    between atoms: _483  and  _485
REMARK  178  A    between atoms: _485  and  _486
REMARK  179  A    between atoms: _485  and  _488
REMARK  180  A    between atoms: _488  and  _489
REMARK  181  A    between atoms: _495  and  _497
REMARK  182  A    between atoms: _497  and  _498
REMARK  183  A    between atoms: _501  and  _503
REMARK  184  A    between atoms: _503  and  _504
REMARK  185  A    between atoms: _503  and  _506
REMARK  186  A    between atoms: _506  and  _507
REMARK  187  A    between atoms: _509  and  _511
REMARK  188  A    between atoms: _511  and  _512
REMARK  189  A    between atoms: _514  and  _516
REMARK  190  A    between atoms: _516  and  _517
REMARK  191  A    between atoms: _516  and  _519
REMARK  192  A    between atoms: _519  and  _520
REMARK  193  A    between atoms: _520  and  _521
REMARK  194  A    between atoms: _527  and  _528
REMARK  195  A    between atoms: _533  and  _535
REMARK  196  A    between atoms: _535  and  _536
REMARK  197  A    between atoms: _535  and  _538
REMARK  198  A    between atoms: _538  and  _539
REMARK  199  A    between atoms: _544  and  _545
REMARK  200  A    between atoms: _547  and  _549
REMARK  201  A    between atoms: _549  and  _550
REMARK  202  A    between atoms: _549  and  _552
REMARK  203  A    between atoms: _552  and  _553
REMARK  204  A    between atoms: _553  and  _554
REMARK  205  A    between atoms: _554  and  _555
REMARK  206  A    between atoms: _564  and  _566
REMARK  207  A    between atoms: _566  and  _567
REMARK  208  A    between atoms: _566  and  _569
REMARK  209  A    between atoms: _569  and  _570
REMARK  210  A    between atoms: _575  and  _576
REMARK  211  A    between atoms: _578  and  _580
REMARK  212  A    between atoms: _580  and  _581
REMARK  213  A    between atoms: _580  and  _583
REMARK  214  A    between atoms: _583  and  _584
REMARK  215  A    between atoms: _584  and  _585
REMARK  216  A    between atoms: _588  and  _590
REMARK  217  A    between atoms: _590  and  _591
REMARK  218  A    between atoms: _590  and  _593
REMARK  219  A    between atoms: _593  and  _594
REMARK  220  A    between atoms: _594  and  _595
REMARK  221  A    between atoms: _595  and  _596
REMARK                            x       y       z     vdW  Elec       q    Type
REMARK                         _______ _______ _______ _____ _____    ______ ____
ROOT
ATOM      1  O   HOH     1      -0.619   9.969 -14.775  0.00  0.00    +0.000 OA
ENDROOT
TORSDOF 0
REMARK  Name = ../refined-set-2016/4zb8/4zb8_pocket.pdb
REMARK  221 active torsions:
REMARK  status: ('A' for Active; 'I' for Inactive)
REMARK    1  A    between atoms: _1  and  _3
REMARK    2  A    between atoms: _3  and  _4
REMARK    3  A    between atoms: _3  and  _6
REMARK    4  A    between atoms: _6  and  _7
REMARK    5  A    between atoms: _12  and  _13
REMARK    6  A    between atoms: _15  and  _17
REMARK    7  A    between atoms: _17  and  _18
REMARK    8  A    between atoms: _17  and  _20
REMARK    9  A    between atoms: _20  and  _21
REMARK   10  A    between atoms: _24  and  _26
REMARK   11  A    between atoms: _26  and  _27
REMARK   12  A    between atoms: _26  and  _29
REMARK   13  A    between atoms: _29  and  _30
REMARK   14  A    between atoms: _35  and  _37
REMARK   15  A    between atoms: _37  and  _38
REMARK   16  A    between atoms: _40  and  _42
REMARK   17  A    between atoms: _42  and  _43
REMARK   18  A    between atoms: _46  and  _47
REMARK   19  A    between atoms: _52  and  _54
REMARK   20  A    between atoms: _54  and  _55
REMARK   21  A    between atoms: _54  and  _57
REMARK   22  A    between atoms: _57  and  _58
REMARK   23  A    between atoms: _63  and  _65
REMARK   24  A    between atoms: _65  and  _66
REMARK   25  A    between atoms: _68  and  _70
REMARK   26  A    between atoms: _70  and  _71
REMARK   27  A    between atoms: _70  and  _73
REMARK   28  A    between atoms: _73  and  _74
REMARK   29  A    between atoms: _84  and  _86
REMARK   30  A    between atoms: _86  and  _87
REMARK   31  A    between atoms: _86  and  _89
REMARK   32  A    between atoms: _89  and  _90
REMARK   33  A    between atoms: _90  and  _91
REMARK   34  A    between atoms: _91  and  _92
REMARK   35  A    between atoms: _92  and  _93
REMARK   36  A    between atoms: _97  and  _99
REMARK   37  A    between atoms: _99  and  _100
REMARK   38  A    between atoms: _99  and  _102
REMARK   39  A    between atoms: _105  and  _107
REMARK   40  A    between atoms: _107  and  _108
REMARK   41  A    between atoms: _107  and  _110
REMARK   42  A    between atoms: _110  and  _111
REMARK   43  A    between atoms: _114  and  _116
REMARK   44  A    between atoms: _116  and  _117
REMARK   45  A    between atoms: _116  and  _119
REMARK   46  A    between atoms: _119  and  _120
REMARK   47  A    between atoms: _126  and  _128
REMARK   48  A    between atoms: _128  and  _129
REMARK   49  A    between atoms: _128  and  _131
REMARK   50  A    between atoms: _131  and  _132
REMARK   51  A    between atoms: _137  and  _139
REMARK   52  A    between atoms: _139  and  _140
REMARK   53  A    between atoms: _139  and  _142
REMARK   54  A    between atoms: _142  and  _143
REMARK   55  A    between atoms: _143  and  _144
REMARK   56  A    between atoms: _144  and  _145
REMARK   57  A    between atoms: _145  and  _146
REMARK   58  A    between atoms: _150  and  _152
REMARK   59  A    between atoms: _152  and  _153
REMARK   60  A    between atoms: _152  and  _155
REMARK   61  A    between atoms: _155  and  _156
REMARK   62  A    between atoms: _161  and  _162
REMARK   63  A    between atoms: _164  and  _166
REMARK   64  A    between atoms: _166  and  _167
REMARK   65  A    between atoms: _166  and  _169
REMARK   66  A    between atoms: _169  and  _170
REMARK   67  A    between atoms: _175  and  _177
REMARK   68  A    between atoms: _177  and  _178
REMARK   69  A    between atoms: _177  and  _180
REMARK   70  A    between atoms: _180  and  _181
REMARK   71  A    between atoms: _186  and  _188
REMARK   72  A    between atoms: _188  and  _189
REMARK   73  A    between atoms: _191  and  _193
REMARK   74  A    between atoms: _193  and  _194
REMARK   75  A    between atoms: _193  and  _196
REMARK   76  A    between atoms: _196  and  _197
REMARK   77  A    between atoms: _197  and  _198
REMARK   78  A    between atoms: _198  and  _199
REMARK   79  A    between atoms: _208  and  _210
REMARK   80  A    between atoms: _210  and  _211
REMARK   81  A    between atoms: _210  and  _213
REMARK   82  A    between atoms: _213  and  _214
REMARK   83  A    between atoms: _218  and  _219
REMARK   84  A    between atoms: _224  and  _226
REMARK   85  A    between atoms: _226  and  _227
REMARK   86  A    between atoms: _230  and  _232
REMARK   87  A    between atoms: _232  and  _233
REMARK   88  A    between atoms: _232  and  _235
REMARK   89  A    between atoms: _235  and  _236
REMARK   90  A    between atoms: _246  and  _248
REMARK   91  A    between atoms: _248  and  _249
REMARK   92  A    between atoms: _248  and  _251
REMARK   93  A    between atoms: _251  and  _252
REMARK   94  A    between atoms: _252  and  _253
REMARK   95  A    between atoms: _256  and  _258
REMARK   96  A    between atoms: _258  and  _259
REMARK   97  A    between atoms: _258  and  _261
REMARK   98  A    between atoms: _261  and  _262
REMARK   99  A    between atoms: _264  and  _266
REMARK  100  A    between atoms: _266  and  _267
REMARK  101  A    between atoms: _266  and  _269
REMARK  102  A    between atoms: _269  and  _270
REMARK  103  A    between atoms: _275  and  _277
REMARK  104  A    between atoms: _277  and  _278
REMARK  105  A    between atoms: _281  and  _283
REMARK  106  A    between atoms: _283  and  _284
REMARK  107  A    between atoms: _283  and  _286
REMARK  108  A    between atoms: _286  and  _287
REMARK  109  A    between atoms: _290  and  _292
REMARK  110  A    between atoms: _292  and  _293
REMARK  111  A    between atoms: _292  and  _295
REMARK  112  A    between atoms: _295  and  _296
REMARK  113  A    between atoms: _299  and  _301
REMARK  114  A    between atoms: _301  and  _302
REMARK  115  A    between atoms: _301  and  _304
REMARK  116  A    between atoms: _304  and  _305
REMARK  117  A    between atoms: _305  and  _306
REMARK  118  A    between atoms: _311  and  _313
REMARK  119  A    between atoms: _313  and  _314
REMARK  120  A    between atoms: _317  and  _319
REMARK  121  A    between atoms: _319  and  _320
REMARK  122  A    between atoms: _319  and  _322
REMARK  123  A    between atoms: _322  and  _323
REMARK  124  A    between atoms: _325  and  _327
REMARK  125  A    between atoms: _327  and  _328
REMARK  126  A    between atoms: _330  and  _332
REMARK  127  A    between atoms: _332  and  _333
REMARK  128  A    between atoms: _332  and  _335
REMARK  129  A    between atoms: _335  and  _336
REMARK  130  A    between atoms: _336  and  _337
REMARK  131  A    between atoms: _342  and  _344
REMARK  132  A    between atoms: _344  and  _345
REMARK  133  A    between atoms: _348  and  _349
REMARK  134  A    between atoms: _354  and  _356
REMARK  135  A    between atoms: _356  and  _357
REMARK  136  A    between atoms: _356  and  _359
REMARK  137  A    between atoms: _359  and  _360
REMARK  138  A    between atoms: _365  and  _366
REMARK  139  A    between atoms: _368  and  _370
REMARK  140  A    between atoms: _370  and  _371
REMARK  141  A    between atoms: _370  and  _373
REMARK  142  A    between atoms: _373  and  _374
REMARK  143  A    between atoms: _379  and  _380
REMARK  144  A    between atoms: _382  and  _384
REMARK  145  A    between atoms: _384  and  _385
REMARK  146  A    between atoms: _387  and  _389
REMARK  147  A    between atoms: _389  and  _390
REMARK  148  A    between atoms: _389  and  _392
REMARK  149  A    between atoms: _392  and  _393
REMARK  150  A    between atoms: _393  and  _394
REMARK  151  A    between atoms: _399  and  _401
REMARK  152  A    between atoms: _401  and  _402
REMARK  153  A    between atoms: _405  and  _407
REMARK  154  A    between atoms: _407  and  _408
REMARK  155  A    between atoms: _411  and  _413
REMARK  156  A    between atoms: _413  and  _414
REMARK  157  A    between atoms: _413  and  _416
REMARK  158  A    between atoms: _416  and  _417
REMARK  159  A    between atoms: _427  and  _429
REMARK  160  A    between atoms: _429  and  _430
REMARK  161  A    between atoms: _429  and  _432
REMARK  162  A    between atoms: _432  and  _433
REMARK  163  A    between atoms: _439  and  _441
REMARK  164  A    between atoms: _441  and  _442
REMARK  165  A    between atoms: _441  and  _444
REMARK  166  A    between atoms: _444  and  _445
REMARK  167  A    between atoms: _450  and  _451
REMARK  168  A    between atoms: _453  and  _455
REMARK  169  A    between atoms: _455  and  _456
REMARK  170  A    between atoms: _455  and  _458
REMARK  171  A    between atoms: _458  and  _459
REMARK  172  A    between atoms: _469  and  _471
REMARK  173  A    between atoms: _471  and  _472
REMARK  174  A    between atoms: _471  and  _474
REMARK  175  A    between atoms: _474  and  _475
REMARK  176  A    between atoms: _480  and  _481
REMARK  177  A    between atoms: _483  and  _485
REMARK  178  A    between atoms: _485  and  _486
REMARK  179  A    between atoms: _485  and  _488
REMARK  180  A    between atoms: _488  and  _489
REMARK  181  A    between atoms: _495  and  _497
REMARK  182  A    between atoms: _497  and  _498
REMARK  183  A    between atoms: _501  and  _503
REMARK  184  A    between atoms: _503  and  _504
REMARK  185  A    between atoms: _503  and  _506
REMARK  186  A    between atoms: _506  and  _507
REMARK  187  A    between atoms: _509  and  _511
REMARK  188  A    between atoms: _511  and  _512
REMARK  189  A    between atoms: _514  and  _516
REMARK  190  A    between atoms: _516  and  _517
REMARK  191  A    between atoms: _516  and  _519
REMARK  192  A    between atoms: _519  and  _520
REMARK  193  A    between atoms: _520  and  _521
REMARK  194  A    between atoms: _527  and  _528
REMARK  195  A    between atoms: _533  and  _535
REMARK  196  A    between atoms: _535  and  _536
REMARK  197  A    between atoms: _535  and  _538
REMARK  198  A    between atoms: _538  and  _539
REMARK  199  A    between atoms: _544  and  _545
REMARK  200  A    between atoms: _547  and  _549
REMARK  201  A    between atoms: _549  and  _550
REMARK  202  A    between atoms: _549  and  _552
REMARK  203  A    between atoms: _552  and  _553
REMARK  204  A    between atoms: _553  and  _554
REMARK  205  A    between atoms: _554  and  _555
REMARK  206  A    between atoms: _564  and  _566
REMARK  207  A    between atoms: _566  and  _567
REMARK  208  A    between atoms: _566  and  _569
REMARK  209  A    between atoms: _569  and  _570
REMARK  210  A    between atoms: _575  and  _576
REMARK  211  A    between atoms: _578  and  _580
REMARK  212  A    between atoms: _580  and  _581
REMARK  213  A    between atoms: _580  and  _583
REMARK  214  A    between atoms: _583  and  _584
REMARK  215  A    between atoms: _584  and  _585
REMARK  216  A    between atoms: _588  and  _590
REMARK  217  A    between atoms: _590  and  _591
REMARK  218  A    between atoms: _590  and  _593
REMARK  219  A    between atoms: _593  and  _594
REMARK  220  A    between atoms: _594  and  _595
REMARK  221  A    between atoms: _595  and  _596
REMARK                            x       y       z     vdW  Elec       q    Type
REMARK                         _______ _______ _______ _____ _____    ______ ____
ROOT
ATOM      1  O   HOH     1      -1.677   4.261 -11.124  0.00  0.00    +0.000 OA
ENDROOT
TORSDOF 0
REMARK  Name = ../refined-set-2016/4zb8/4zb8_pocket.pdb
REMARK  221 active torsions:
REMARK  status: ('A' for Active; 'I' for Inactive)
REMARK    1  A    between atoms: _1  and  _3
REMARK    2  A    between atoms: _3  and  _4
REMARK    3  A    between atoms: _3  and  _6
REMARK    4  A    between atoms: _6  and  _7
REMARK    5  A    between atoms: _12  and  _13
REMARK    6  A    between atoms: _15  and  _17
REMARK    7  A    between atoms: _17  and  _18
REMARK    8  A    between atoms: _17  and  _20
REMARK    9  A    between atoms: _20  and  _21
REMARK   10  A    between atoms: _24  and  _26
REMARK   11  A    between atoms: _26  and  _27
REMARK   12  A    between atoms: _26  and  _29
REMARK   13  A    between atoms: _29  and  _30
REMARK   14  A    between atoms: _35  and  _37
REMARK   15  A    between atoms: _37  and  _38
REMARK   16  A    between atoms: _40  and  _42
REMARK   17  A    between atoms: _42  and  _43
REMARK   18  A    between atoms: _46  and  _47
REMARK   19  A    between atoms: _52  and  _54
REMARK   20  A    between atoms: _54  and  _55
REMARK   21  A    between atoms: _54  and  _57
REMARK   22  A    between atoms: _57  and  _58
REMARK   23  A    between atoms: _63  and  _65
REMARK   24  A    between atoms: _65  and  _66
REMARK   25  A    between atoms: _68  and  _70
REMARK   26  A    between atoms: _70  and  _71
REMARK   27  A    between atoms: _70  and  _73
REMARK   28  A    between atoms: _73  and  _74
REMARK   29  A    between atoms: _84  and  _86
REMARK   30  A    between atoms: _86  and  _87
REMARK   31  A    between atoms: _86  and  _89
REMARK   32  A    between atoms: _89  and  _90
REMARK   33  A    between atoms: _90  and  _91
REMARK   34  A    between atoms: _91  and  _92
REMARK   35  A    between atoms: _92  and  _93
REMARK   36  A    between atoms: _97  and  _99
REMARK   37  A    between atoms: _99  and  _100
REMARK   38  A    between atoms: _99  and  _102
REMARK   39  A    between atoms: _105  and  _107
REMARK   40  A    between atoms: _107  and  _108
REMARK   41  A    between atoms: _107  and  _110
REMARK   42  A    between atoms: _110  and  _111
REMARK   43  A    between atoms: _114  and  _116
REMARK   44  A    between atoms: _116  and  _117
REMARK   45  A    between atoms: _116  and  _119
REMARK   46  A    between atoms: _119  and  _120
REMARK   47  A    between atoms: _126  and  _128
REMARK   48  A    between atoms: _128  and  _129
REMARK   49  A    between atoms: _128  and  _131
REMARK   50  A    between atoms: _131  and  _132
REMARK   51  A    between atoms: _137  and  _139
REMARK   52  A    between atoms: _139  and  _140
REMARK   53  A    between atoms: _139  and  _142
REMARK   54  A    between atoms: _142  and  _143
REMARK   55  A    between atoms: _143  and  _144
REMARK   56  A    between atoms: _144  and  _145
REMARK   57  A    between atoms: _145  and  _146
REMARK   58  A    between atoms: _150  and  _152
REMARK   59  A    between atoms: _152  and  _153
REMARK   60  A    between atoms: _152  and  _155
REMARK   61  A    between atoms: _155  and  _156
REMARK   62  A    between atoms: _161  and  _162
REMARK   63  A    between atoms: _164  and  _166
REMARK   64  A    between atoms: _166  and  _167
REMARK   65  A    between atoms: _166  and  _169
REMARK   66  A    between atoms: _169  and  _170
REMARK   67  A    between atoms: _175  and  _177
REMARK   68  A    between atoms: _177  and  _178
REMARK   69  A    between atoms: _177  and  _180
REMARK   70  A    between atoms: _180  and  _181
REMARK   71  A    between atoms: _186  and  _188
REMARK   72  A    between atoms: _188  and  _189
REMARK   73  A    between atoms: _191  and  _193
REMARK   74  A    between atoms: _193  and  _194
REMARK   75  A    between atoms: _193  and  _196
REMARK   76  A    between atoms: _196  and  _197
REMARK   77  A    between atoms: _197  and  _198
REMARK   78  A    between atoms: _198  and  _199
REMARK   79  A    between atoms: _208  and  _210
REMARK   80  A    between atoms: _210  and  _211
REMARK   81  A    between atoms: _210  and  _213
REMARK   82  A    between atoms: _213  and  _214
REMARK   83  A    between atoms: _218  and  _219
REMARK   84  A    between atoms: _224  and  _226
REMARK   85  A    between atoms: _226  and  _227
REMARK   86  A    between atoms: _230  and  _232
REMARK   87  A    between atoms: _232  and  _233
REMARK   88  A    between atoms: _232  and  _235
REMARK   89  A    between atoms: _235  and  _236
REMARK   90  A    between atoms: _246  and  _248
REMARK   91  A    between atoms: _248  and  _249
REMARK   92  A    between atoms: _248  and  _251
REMARK   93  A    between atoms: _251  and  _252
REMARK   94  A    between atoms: _252  and  _253
REMARK   95  A    between atoms: _256  and  _258
REMARK   96  A    between atoms: _258  and  _259
REMARK   97  A    between atoms: _258  and  _261
REMARK   98  A    between atoms: _261  and  _262
REMARK   99  A    between atoms: _264  and  _266
REMARK  100  A    between atoms: _266  and  _267
REMARK  101  A    between atoms: _266  and  _269
REMARK  102  A    between atoms: _269  and  _270
REMARK  103  A    between atoms: _275  and  _277
REMARK  104  A    between atoms: _277  and  _278
REMARK  105  A    between atoms: _281  and  _283
REMARK  106  A    between atoms: _283  and  _284
REMARK  107  A    between atoms: _283  and  _286
REMARK  108  A    between atoms: _286  and  _287
REMARK  109  A    between atoms: _290  and  _292
REMARK  110  A    between atoms: _292  and  _293
REMARK  111  A    between atoms: _292  and  _295
REMARK  112  A    between atoms: _295  and  _296
REMARK  113  A    between atoms: _299  and  _301
REMARK  114  A    between atoms: _301  and  _302
REMARK  115  A    between atoms: _301  and  _304
REMARK  116  A    between atoms: _304  and  _305
REMARK  117  A    between atoms: _305  and  _306
REMARK  118  A    between atoms: _311  and  _313
REMARK  119  A    between atoms: _313  and  _314
REMARK  120  A    between atoms: _317  and  _319
REMARK  121  A    between atoms: _319  and  _320
REMARK  122  A    between atoms: _319  and  _322
REMARK  123  A    between atoms: _322  and  _323
REMARK  124  A    between atoms: _325  and  _327
REMARK  125  A    between atoms: _327  and  _328
REMARK  126  A    between atoms: _330  and  _332
REMARK  127  A    between atoms: _332  and  _333
REMARK  128  A    between atoms: _332  and  _335
REMARK  129  A    between atoms: _335  and  _336
REMARK  130  A    between atoms: _336  and  _337
REMARK  131  A    between atoms: _342  and  _344
REMARK  132  A    between atoms: _344  and  _345
REMARK  133  A    between atoms: _348  and  _349
REMARK  134  A    between atoms: _354  and  _356
REMARK  135  A    between atoms: _356  and  _357
REMARK  136  A    between atoms: _356  and  _359
REMARK  137  A    between atoms: _359  and  _360
REMARK  138  A    between atoms: _365  and  _366
REMARK  139  A    between atoms: _368  and  _370
REMARK  140  A    between atoms: _370  and  _371
REMARK  141  A    between atoms: _370  and  _373
REMARK  142  A    between atoms: _373  and  _374
REMARK  143  A    between atoms: _379  and  _380
REMARK  144  A    between atoms: _382  and  _384
REMARK  145  A    between atoms: _384  and  _385
REMARK  146  A    between atoms: _387  and  _389
REMARK  147  A    between atoms: _389  and  _390
REMARK  148  A    between atoms: _389  and  _392
REMARK  149  A    between atoms: _392  and  _393
REMARK  150  A    between atoms: _393  and  _394
REMARK  151  A    between atoms: _399  and  _401
REMARK  152  A    between atoms: _401  and  _402
REMARK  153  A    between atoms: _405  and  _407
REMARK  154  A    between atoms: _407  and  _408
REMARK  155  A    between atoms: _411  and  _413
REMARK  156  A    between atoms: _413  and  _414
REMARK  157  A    between atoms: _413  and  _416
REMARK  158  A    between atoms: _416  and  _417
REMARK  159  A    between atoms: _427  and  _429
REMARK  160  A    between atoms: _429  and  _430
REMARK  161  A    between atoms: _429  and  _432
REMARK  162  A    between atoms: _432  and  _433
REMARK  163  A    between atoms: _439  and  _441
REMARK  164  A    between atoms: _441  and  _442
REMARK  165  A    between atoms: _441  and  _444
REMARK  166  A    between atoms: _444  and  _445
REMARK  167  A    between atoms: _450  and  _451
REMARK  168  A    between atoms: _453  and  _455
REMARK  169  A    between atoms: _455  and  _456
REMARK  170  A    between atoms: _455  and  _458
REMARK  171  A    between atoms: _458  and  _459
REMARK  172  A    between atoms: _469  and  _471
REMARK  173  A    between atoms: _471  and  _472
REMARK  174  A    between atoms: _471  and  _474
REMARK  175  A    between atoms: _474  and  _475
REMARK  176  A    between atoms: _480  and  _481
REMARK  177  A    between atoms: _483  and  _485
REMARK  178  A    between atoms: _485  and  _486
REMARK  179  A    between atoms: _485  and  _488
REMARK  180  A    between atoms: _488  and  _489
REMARK  181  A    between atoms: _495  and  _497
REMARK  182  A    between atoms: _497  and  _498
REMARK  183  A    between atoms: _501  and  _503
REMARK  184  A    between atoms: _503  and  _504
REMARK  185  A    between atoms: _503  and  _506
REMARK  186  A    between atoms: _506  and  _507
REMARK  187  A    between atoms: _509  and  _511
REMARK  188  A    between atoms: _511  and  _512
REMARK  189  A    between atoms: _514  and  _516
REMARK  190  A    between atoms: _516  and  _517
REMARK  191  A    between atoms: _516  and  _519
REMARK  192  A    between atoms: _519  and  _520
REMARK  193  A    between atoms: _520  and  _521
REMARK  194  A    between atoms: _527  and  _528
REMARK  195  A    between atoms: _533  and  _535
REMARK  196  A    between atoms: _535  and  _536
REMARK  197  A    between atoms: _535  and  _538
REMARK  198  A    between atoms: _538  and  _539
REMARK  199  A    between atoms: _544  and  _545
REMARK  200  A    between atoms: _547  and  _549
REMARK  201  A    between atoms: _549  and  _550
REMARK  202  A    between atoms: _549  and  _552
REMARK  203  A    between atoms: _552  and  _553
REMARK  204  A    between atoms: _553  and  _554
REMARK  205  A    between atoms: _554  and  _555
REMARK  206  A    between atoms: _564  and  _566
REMARK  207  A    between atoms: _566  and  _567
REMARK  208  A    between atoms: _566  and  _569
REMARK  209  A    between atoms: _569  and  _570
REMARK  210  A    between atoms: _575  and  _576
REMARK  211  A    between atoms: _578  and  _580
REMARK  212  A    between atoms: _580  and  _581
REMARK  213  A    between atoms: _580  and  _583
REMARK  214  A    between atoms: _583  and  _584
REMARK  215  A    between atoms: _584  and  _585
REMARK  216  A    between atoms: _588  and  _590
REMARK  217  A    between atoms: _590  and  _591
REMARK  218  A    between atoms: _590  and  _593
REMARK  219  A    between atoms: _593  and  _594
REMARK  220  A    between atoms: _594  and  _595
REMARK  221  A    between atoms: _595  and  _596
REMARK                            x       y       z     vdW  Elec       q    Type
REMARK                         _______ _______ _______ _____ _____    ______ ____
ROOT
ATOM      1  O   HOH     1      -1.079  13.531  -3.548  0.00  0.00    +0.000 OA
ENDROOT
TORSDOF 0
REMARK  Name = ../refined-set-2016/4zb8/4zb8_pocket.pdb
REMARK  221 active torsions:
REMARK  status: ('A' for Active; 'I' for Inactive)
REMARK    1  A    between atoms: _1  and  _3
REMARK    2  A    between atoms: _3  and  _4
REMARK    3  A    between atoms: _3  and  _6
REMARK    4  A    between atoms: _6  and  _7
REMARK    5  A    between atoms: _12  and  _13
REMARK    6  A    between atoms: _15  and  _17
REMARK    7  A    between atoms: _17  and  _18
REMARK    8  A    between atoms: _17  and  _20
REMARK    9  A    between atoms: _20  and  _21
REMARK   10  A    between atoms: _24  and  _26
REMARK   11  A    between atoms: _26  and  _27
REMARK   12  A    between atoms: _26  and  _29
REMARK   13  A    between atoms: _29  and  _30
REMARK   14  A    between atoms: _35  and  _37
REMARK   15  A    between atoms: _37  and  _38
REMARK   16  A    between atoms: _40  and  _42
REMARK   17  A    between atoms: _42  and  _43
REMARK   18  A    between atoms: _46  and  _47
REMARK   19  A    between atoms: _52  and  _54
REMARK   20  A    between atoms: _54  and  _55
REMARK   21  A    between atoms: _54  and  _57
REMARK   22  A    between atoms: _57  and  _58
REMARK   23  A    between atoms: _63  and  _65
REMARK   24  A    between atoms: _65  and  _66
REMARK   25  A    between atoms: _68  and  _70
REMARK   26  A    between atoms: _70  and  _71
REMARK   27  A    between atoms: _70  and  _73
REMARK   28  A    between atoms: _73  and  _74
REMARK   29  A    between atoms: _84  and  _86
REMARK   30  A    between atoms: _86  and  _87
REMARK   31  A    between atoms: _86  and  _89
REMARK   32  A    between atoms: _89  and  _90
REMARK   33  A    between atoms: _90  and  _91
REMARK   34  A    between atoms: _91  and  _92
REMARK   35  A    between atoms: _92  and  _93
REMARK   36  A    between atoms: _97  and  _99
REMARK   37  A    between atoms: _99  and  _100
REMARK   38  A    between atoms: _99  and  _102
REMARK   39  A    between atoms: _105  and  _107
REMARK   40  A    between atoms: _107  and  _108
REMARK   41  A    between atoms: _107  and  _110
REMARK   42  A    between atoms: _110  and  _111
REMARK   43  A    between atoms: _114  and  _116
REMARK   44  A    between atoms: _116  and  _117
REMARK   45  A    between atoms: _116  and  _119
REMARK   46  A    between atoms: _119  and  _120
REMARK   47  A    between atoms: _126  and  _128
REMARK   48  A    between atoms: _128  and  _129
REMARK   49  A    between atoms: _128  and  _131
REMARK   50  A    between atoms: _131  and  _132
REMARK   51  A    between atoms: _137  and  _139
REMARK   52  A    between atoms: _139  and  _140
REMARK   53  A    between atoms: _139  and  _142
REMARK   54  A    between atoms: _142  and  _143
REMARK   55  A    between atoms: _143  and  _144
REMARK   56  A    between atoms: _144  and  _145
REMARK   57  A    between atoms: _145  and  _146
REMARK   58  A    between atoms: _150  and  _152
REMARK   59  A    between atoms: _152  and  _153
REMARK   60  A    between atoms: _152  and  _155
REMARK   61  A    between atoms: _155  and  _156
REMARK   62  A    between atoms: _161  and  _162
REMARK   63  A    between atoms: _164  and  _166
REMARK   64  A    between atoms: _166  and  _167
REMARK   65  A    between atoms: _166  and  _169
REMARK   66  A    between atoms: _169  and  _170
REMARK   67  A    between atoms: _175  and  _177
REMARK   68  A    between atoms: _177  and  _178
REMARK   69  A    between atoms: _177  and  _180
REMARK   70  A    between atoms: _180  and  _181
REMARK   71  A    between atoms: _186  and  _188
REMARK   72  A    between atoms: _188  and  _189
REMARK   73  A    between atoms: _191  and  _193
REMARK   74  A    between atoms: _193  and  _194
REMARK   75  A    between atoms: _193  and  _196
REMARK   76  A    between atoms: _196  and  _197
REMARK   77  A    between atoms: _197  and  _198
REMARK   78  A    between atoms: _198  and  _199
REMARK   79  A    between atoms: _208  and  _210
REMARK   80  A    between atoms: _210  and  _211
REMARK   81  A    between atoms: _210  and  _213
REMARK   82  A    between atoms: _213  and  _214
REMARK   83  A    between atoms: _218  and  _219
REMARK   84  A    between atoms: _224  and  _226
REMARK   85  A    between atoms: _226  and  _227
REMARK   86  A    between atoms: _230  and  _232
REMARK   87  A    between atoms: _232  and  _233
REMARK   88  A    between atoms: _232  and  _235
REMARK   89  A    between atoms: _235  and  _236
REMARK   90  A    between atoms: _246  and  _248
REMARK   91  A    between atoms: _248  and  _249
REMARK   92  A    between atoms: _248  and  _251
REMARK   93  A    between atoms: _251  and  _252
REMARK   94  A    between atoms: _252  and  _253
REMARK   95  A    between atoms: _256  and  _258
REMARK   96  A    between atoms: _258  and  _259
REMARK   97  A    between atoms: _258  and  _261
REMARK   98  A    between atoms: _261  and  _262
REMARK   99  A    between atoms: _264  and  _266
REMARK  100  A    between atoms: _266  and  _267
REMARK  101  A    between atoms: _266  and  _269
REMARK  102  A    between atoms: _269  and  _270
REMARK  103  A    between atoms: _275  and  _277
REMARK  104  A    between atoms: _277  and  _278
REMARK  105  A    between atoms: _281  and  _283
REMARK  106  A    between atoms: _283  and  _284
REMARK  107  A    between atoms: _283  and  _286
REMARK  108  A    between atoms: _286  and  _287
REMARK  109  A    between atoms: _290  and  _292
REMARK  110  A    between atoms: _292  and  _293
REMARK  111  A    between atoms: _292  and  _295
REMARK  112  A    between atoms: _295  and  _296
REMARK  113  A    between atoms: _299  and  _301
REMARK  114  A    between atoms: _301  and  _302
REMARK  115  A    between atoms: _301  and  _304
REMARK  116  A    between atoms: _304  and  _305
REMARK  117  A    between atoms: _305  and  _306
REMARK  118  A    between atoms: _311  and  _313
REMARK  119  A    between atoms: _313  and  _314
REMARK  120  A    between atoms: _317  and  _319
REMARK  121  A    between atoms: _319  and  _320
REMARK  122  A    between atoms: _319  and  _322
REMARK  123  A    between atoms: _322  and  _323
REMARK  124  A    between atoms: _325  and  _327
REMARK  125  A    between atoms: _327  and  _328
REMARK  126  A    between atoms: _330  and  _332
REMARK  127  A    between atoms: _332  and  _333
REMARK  128  A    between atoms: _332  and  _335
REMARK  129  A    between atoms: _335  and  _336
REMARK  130  A    between atoms: _336  and  _337
REMARK  131  A    between atoms: _342  and  _344
REMARK  132  A    between atoms: _344  and  _345
REMARK  133  A    between atoms: _348  and  _349
REMARK  134  A    between atoms: _354  and  _356
REMARK  135  A    between atoms: _356  and  _357
REMARK  136  A    between atoms: _356  and  _359
REMARK  137  A    between atoms: _359  and  _360
REMARK  138  A    between atoms: _365  and  _366
REMARK  139  A    between atoms: _368  and  _370
REMARK  140  A    between atoms: _370  and  _371
REMARK  141  A    between atoms: _370  and  _373
REMARK  142  A    between atoms: _373  and  _374
REMARK  143  A    between atoms: _379  and  _380
REMARK  144  A    between atoms: _382  and  _384
REMARK  145  A    between atoms: _384  and  _385
REMARK  146  A    between atoms: _387  and  _389
REMARK  147  A    between atoms: _389  and  _390
REMARK  148  A    between atoms: _389  and  _392
REMARK  149  A    between atoms: _392  and  _393
REMARK  150  A    between atoms: _393  and  _394
REMARK  151  A    between atoms: _399  and  _401
REMARK  152  A    between atoms: _401  and  _402
REMARK  153  A    between atoms: _405  and  _407
REMARK  154  A    between atoms: _407  and  _408
REMARK  155  A    between atoms: _411  and  _413
REMARK  156  A    between atoms: _413  and  _414
REMARK  157  A    between atoms: _413  and  _416
REMARK  158  A    between atoms: _416  and  _417
REMARK  159  A    between atoms: _427  and  _429
REMARK  160  A    between atoms: _429  and  _430
REMARK  161  A    between atoms: _429  and  _432
REMARK  162  A    between atoms: _432  and  _433
REMARK  163  A    between atoms: _439  and  _441
REMARK  164  A    between atoms: _441  and  _442
REMARK  165  A    between atoms: _441  and  _444
REMARK  166  A    between atoms: _444  and  _445
REMARK  167  A    between atoms: _450  and  _451
REMARK  168  A    between atoms: _453  and  _455
REMARK  169  A    between atoms: _455  and  _456
REMARK  170  A    between atoms: _455  and  _458
REMARK  171  A    between atoms: _458  and  _459
REMARK  172  A    between atoms: _469  and  _471
REMARK  173  A    between atoms: _471  and  _472
REMARK  174  A    between atoms: _471  and  _474
REMARK  175  A    between atoms: _474  and  _475
REMARK  176  A    between atoms: _480  and  _481
REMARK  177  A    between atoms: _483  and  _485
REMARK  178  A    between atoms: _485  and  _486
REMARK  179  A    between atoms: _485  and  _488
REMARK  180  A    between atoms: _488  and  _489
REMARK  181  A    between atoms: _495  and  _497
REMARK  182  A    between atoms: _497  and  _498
REMARK  183  A    between atoms: _501  and  _503
REMARK  184  A    between atoms: _503  and  _504
REMARK  185  A    between atoms: _503  and  _506
REMARK  186  A    between atoms: _506  and  _507
REMARK  187  A    between atoms: _509  and  _511
REMARK  188  A    between atoms: _511  and  _512
REMARK  189  A    between atoms: _514  and  _516
REMARK  190  A    between atoms: _516  and  _517
REMARK  191  A    between atoms: _516  and  _519
REMARK  192  A    between atoms: _519  and  _520
REMARK  193  A    between atoms: _520  and  _521
REMARK  194  A    between atoms: _527  and  _528
REMARK  195  A    between atoms: _533  and  _535
REMARK  196  A    between atoms: _535  and  _536
REMARK  197  A    between atoms: _535  and  _538
REMARK  198  A    between atoms: _538  and  _539
REMARK  199  A    between atoms: _544  and  _545
REMARK  200  A    between atoms: _547  and  _549
REMARK  201  A    between atoms: _549  and  _550
REMARK  202  A    between atoms: _549  and  _552
REMARK  203  A    between atoms: _552  and  _553
REMARK  204  A    between atoms: _553  and  _554
REMARK  205  A    between atoms: _554  and  _555
REMARK  206  A    between atoms: _564  and  _566
REMARK  207  A    between atoms: _566  and  _567
REMARK  208  A    between atoms: _566  and  _569
REMARK  209  A    between atoms: _569  and  _570
REMARK  210  A    between atoms: _575  and  _576
REMARK  211  A    between atoms: _578  and  _580
REMARK  212  A    between atoms: _580  and  _581
REMARK  213  A    between atoms: _580  and  _583
REMARK  214  A    between atoms: _583  and  _584
REMARK  215  A    between atoms: _584  and  _585
REMARK  216  A    between atoms: _588  and  _590
REMARK  217  A    between atoms: _590  and  _591
REMARK  218  A    between atoms: _590  and  _593
REMARK  219  A    between atoms: _593  and  _594
REMARK  220  A    between atoms: _594  and  _595
REMARK  221  A    between atoms: _595  and  _596
REMARK                            x       y       z     vdW  Elec       q    Type
REMARK                         _______ _______ _______ _____ _____    ______ ____
ROOT
ATOM      1  O   HOH     1      -1.422   5.060 -16.717  0.00  0.00    +0.000 OA
ENDROOT
TORSDOF 0
REMARK  Name = ../refined-set-2016/4zb8/4zb8_pocket.pdb
REMARK  221 active torsions:
REMARK  status: ('A' for Active; 'I' for Inactive)
REMARK    1  A    between atoms: _1  and  _3
REMARK    2  A    between atoms: _3  and  _4
REMARK    3  A    between atoms: _3  and  _6
REMARK    4  A    between atoms: _6  and  _7
REMARK    5  A    between atoms: _12  and  _13
REMARK    6  A    between atoms: _15  and  _17
REMARK    7  A    between atoms: _17  and  _18
REMARK    8  A    between atoms: _17  and  _20
REMARK    9  A    between atoms: _20  and  _21
REMARK   10  A    between atoms: _24  and  _26
REMARK   11  A    between atoms: _26  and  _27
REMARK   12  A    between atoms: _26  and  _29
REMARK   13  A    between atoms: _29  and  _30
REMARK   14  A    between atoms: _35  and  _37
REMARK   15  A    between atoms: _37  and  _38
REMARK   16  A    between atoms: _40  and  _42
REMARK   17  A    between atoms: _42  and  _43
REMARK   18  A    between atoms: _46  and  _47
REMARK   19  A    between atoms: _52  and  _54
REMARK   20  A    between atoms: _54  and  _55
REMARK   21  A    between atoms: _54  and  _57
REMARK   22  A    between atoms: _57  and  _58
REMARK   23  A    between atoms: _63  and  _65
REMARK   24  A    between atoms: _65  and  _66
REMARK   25  A    between atoms: _68  and  _70
REMARK   26  A    between atoms: _70  and  _71
REMARK   27  A    between atoms: _70  and  _73
REMARK   28  A    between atoms: _73  and  _74
REMARK   29  A    between atoms: _84  and  _86
REMARK   30  A    between atoms: _86  and  _87
REMARK   31  A    between atoms: _86  and  _89
REMARK   32  A    between atoms: _89  and  _90
REMARK   33  A    between atoms: _90  and  _91
REMARK   34  A    between atoms: _91  and  _92
REMARK   35  A    between atoms: _92  and  _93
REMARK   36  A    between atoms: _97  and  _99
REMARK   37  A    between atoms: _99  and  _100
REMARK   38  A    between atoms: _99  and  _102
REMARK   39  A    between atoms: _105  and  _107
REMARK   40  A    between atoms: _107  and  _108
REMARK   41  A    between atoms: _107  and  _110
REMARK   42  A    between atoms: _110  and  _111
REMARK   43  A    between atoms: _114  and  _116
REMARK   44  A    between atoms: _116  and  _117
REMARK   45  A    between atoms: _116  and  _119
REMARK   46  A    between atoms: _119  and  _120
REMARK   47  A    between atoms: _126  and  _128
REMARK   48  A    between atoms: _128  and  _129
REMARK   49  A    between atoms: _128  and  _131
REMARK   50  A    between atoms: _131  and  _132
REMARK   51  A    between atoms: _137  and  _139
REMARK   52  A    between atoms: _139  and  _140
REMARK   53  A    between atoms: _139  and  _142
REMARK   54  A    between atoms: _142  and  _143
REMARK   55  A    between atoms: _143  and  _144
REMARK   56  A    between atoms: _144  and  _145
REMARK   57  A    between atoms: _145  and  _146
REMARK   58  A    between atoms: _150  and  _152
REMARK   59  A    between atoms: _152  and  _153
REMARK   60  A    between atoms: _152  and  _155
REMARK   61  A    between atoms: _155  and  _156
REMARK   62  A    between atoms: _161  and  _162
REMARK   63  A    between atoms: _164  and  _166
REMARK   64  A    between atoms: _166  and  _167
REMARK   65  A    between atoms: _166  and  _169
REMARK   66  A    between atoms: _169  and  _170
REMARK   67  A    between atoms: _175  and  _177
REMARK   68  A    between atoms: _177  and  _178
REMARK   69  A    between atoms: _177  and  _180
REMARK   70  A    between atoms: _180  and  _181
REMARK   71  A    between atoms: _186  and  _188
REMARK   72  A    between atoms: _188  and  _189
REMARK   73  A    between atoms: _191  and  _193
REMARK   74  A    between atoms: _193  and  _194
REMARK   75  A    between atoms: _193  and  _196
REMARK   76  A    between atoms: _196  and  _197
REMARK   77  A    between atoms: _197  and  _198
REMARK   78  A    between atoms: _198  and  _199
REMARK   79  A    between atoms: _208  and  _210
REMARK   80  A    between atoms: _210  and  _211
REMARK   81  A    between atoms: _210  and  _213
REMARK   82  A    between atoms: _213  and  _214
REMARK   83  A    between atoms: _218  and  _219
REMARK   84  A    between atoms: _224  and  _226
REMARK   85  A    between atoms: _226  and  _227
REMARK   86  A    between atoms: _230  and  _232
REMARK   87  A    between atoms: _232  and  _233
REMARK   88  A    between atoms: _232  and  _235
REMARK   89  A    between atoms: _235  and  _236
REMARK   90  A    between atoms: _246  and  _248
REMARK   91  A    between atoms: _248  and  _249
REMARK   92  A    between atoms: _248  and  _251
REMARK   93  A    between atoms: _251  and  _252
REMARK   94  A    between atoms: _252  and  _253
REMARK   95  A    between atoms: _256  and  _258
REMARK   96  A    between atoms: _258  and  _259
REMARK   97  A    between atoms: _258  and  _261
REMARK   98  A    between atoms: _261  and  _262
REMARK   99  A    between atoms: _264  and  _266
REMARK  100  A    between atoms: _266  and  _267
REMARK  101  A    between atoms: _266  and  _269
REMARK  102  A    between atoms: _269  and  _270
REMARK  103  A    between atoms: _275  and  _277
REMARK  104  A    between atoms: _277  and  _278
REMARK  105  A    between atoms: _281  and  _283
REMARK  106  A    between atoms: _283  and  _284
REMARK  107  A    between atoms: _283  and  _286
REMARK  108  A    between atoms: _286  and  _287
REMARK  109  A    between atoms: _290  and  _292
REMARK  110  A    between atoms: _292  and  _293
REMARK  111  A    between atoms: _292  and  _295
REMARK  112  A    between atoms: _295  and  _296
REMARK  113  A    between atoms: _299  and  _301
REMARK  114  A    between atoms: _301  and  _302
REMARK  115  A    between atoms: _301  and  _304
REMARK  116  A    between atoms: _304  and  _305
REMARK  117  A    between atoms: _305  and  _306
REMARK  118  A    between atoms: _311  and  _313
REMARK  119  A    between atoms: _313  and  _314
REMARK  120  A    between atoms: _317  and  _319
REMARK  121  A    between atoms: _319  and  _320
REMARK  122  A    between atoms: _319  and  _322
REMARK  123  A    between atoms: _322  and  _323
REMARK  124  A    between atoms: _325  and  _327
REMARK  125  A    between atoms: _327  and  _328
REMARK  126  A    between atoms: _330  and  _332
REMARK  127  A    between atoms: _332  and  _333
REMARK  128  A    between atoms: _332  and  _335
REMARK  129  A    between atoms: _335  and  _336
REMARK  130  A    between atoms: _336  and  _337
REMARK  131  A    between atoms: _342  and  _344
REMARK  132  A    between atoms: _344  and  _345
REMARK  133  A    between atoms: _348  and  _349
REMARK  134  A    between atoms: _354  and  _356
REMARK  135  A    between atoms: _356  and  _357
REMARK  136  A    between atoms: _356  and  _359
REMARK  137  A    between atoms: _359  and  _360
REMARK  138  A    between atoms: _365  and  _366
REMARK  139  A    between atoms: _368  and  _370
REMARK  140  A    between atoms: _370  and  _371
REMARK  141  A    between atoms: _370  and  _373
REMARK  142  A    between atoms: _373  and  _374
REMARK  143  A    between atoms: _379  and  _380
REMARK  144  A    between atoms: _382  and  _384
REMARK  145  A    between atoms: _384  and  _385
REMARK  146  A    between atoms: _387  and  _389
REMARK  147  A    between atoms: _389  and  _390
REMARK  148  A    between atoms: _389  and  _392
REMARK  149  A    between atoms: _392  and  _393
REMARK  150  A    between atoms: _393  and  _394
REMARK  151  A    between atoms: _399  and  _401
REMARK  152  A    between atoms: _401  and  _402
REMARK  153  A    between atoms: _405  and  _407
REMARK  154  A    between atoms: _407  and  _408
REMARK  155  A    between atoms: _411  and  _413
REMARK  156  A    between atoms: _413  and  _414
REMARK  157  A    between atoms: _413  and  _416
REMARK  158  A    between atoms: _416  and  _417
REMARK  159  A    between atoms: _427  and  _429
REMARK  160  A    between atoms: _429  and  _430
REMARK  161  A    between atoms: _429  and  _432
REMARK  162  A    between atoms: _432  and  _433
REMARK  163  A    between atoms: _439  and  _441
REMARK  164  A    between atoms: _441  and  _442
REMARK  165  A    between atoms: _441  and  _444
REMARK  166  A    between atoms: _444  and  _445
REMARK  167  A    between atoms: _450  and  _451
REMARK  168  A    between atoms: _453  and  _455
REMARK  169  A    between atoms: _455  and  _456
REMARK  170  A    between atoms: _455  and  _458
REMARK  171  A    between atoms: _458  and  _459
REMARK  172  A    between atoms: _469  and  _471
REMARK  173  A    between atoms: _471  and  _472
REMARK  174  A    between atoms: _471  and  _474
REMARK  175  A    between atoms: _474  and  _475
REMARK  176  A    between atoms: _480  and  _481
REMARK  177  A    between atoms: _483  and  _485
REMARK  178  A    between atoms: _485  and  _486
REMARK  179  A    between atoms: _485  and  _488
REMARK  180  A    between atoms: _488  and  _489
REMARK  181  A    between atoms: _495  and  _497
REMARK  182  A    between atoms: _497  and  _498
REMARK  183  A    between atoms: _501  and  _503
REMARK  184  A    between atoms: _503  and  _504
REMARK  185  A    between atoms: _503  and  _506
REMARK  186  A    between atoms: _506  and  _507
REMARK  187  A    between atoms: _509  and  _511
REMARK  188  A    between atoms: _511  and  _512
REMARK  189  A    between atoms: _514  and  _516
REMARK  190  A    between atoms: _516  and  _517
REMARK  191  A    between atoms: _516  and  _519
REMARK  192  A    between atoms: _519  and  _520
REMARK  193  A    between atoms: _520  and  _521
REMARK  194  A    between atoms: _527  and  _528
REMARK  195  A    between atoms: _533  and  _535
REMARK  196  A    between atoms: _535  and  _536
REMARK  197  A    between atoms: _535  and  _538
REMARK  198  A    between atoms: _538  and  _539
REMARK  199  A    between atoms: _544  and  _545
REMARK  200  A    between atoms: _547  and  _549
REMARK  201  A    between atoms: _549  and  _550
REMARK  202  A    between atoms: _549  and  _552
REMARK  203  A    between atoms: _552  and  _553
REMARK  204  A    between atoms: _553  and  _554
REMARK  205  A    between atoms: _554  and  _555
REMARK  206  A    between atoms: _564  and  _566
REMARK  207  A    between atoms: _566  and  _567
REMARK  208  A    between atoms: _566  and  _569
REMARK  209  A    between atoms: _569  and  _570
REMARK  210  A    between atoms: _575  and  _576
REMARK  211  A    between atoms: _578  and  _580
REMARK  212  A    between atoms: _580  and  _581
REMARK  213  A    between atoms: _580  and  _583
REMARK  214  A    between atoms: _583  and  _584
REMARK  215  A    between atoms: _584  and  _585
REMARK  216  A    between atoms: _588  and  _590
REMARK  217  A    between atoms: _590  and  _591
REMARK  218  A    between atoms: _590  and  _593
REMARK  219  A    between atoms: _593  and  _594
REMARK  220  A    between atoms: _594  and  _595
REMARK  221  A    between atoms: _595  and  _596
REMARK                            x       y       z     vdW  Elec       q    Type
REMARK                         _______ _______ _______ _____ _____    ______ ____
ROOT
ATOM      1  O   HOH     1      -2.564  17.010  -0.810  0.00  0.00    +0.000 OA
ENDROOT
TORSDOF 0
REMARK  Name = ../refined-set-2016/4zb8/4zb8_pocket.pdb
REMARK  221 active torsions:
REMARK  status: ('A' for Active; 'I' for Inactive)
REMARK    1  A    between atoms: _1  and  _3
REMARK    2  A    between atoms: _3  and  _4
REMARK    3  A    between atoms: _3  and  _6
REMARK    4  A    between atoms: _6  and  _7
REMARK    5  A    between atoms: _12  and  _13
REMARK    6  A    between atoms: _15  and  _17
REMARK    7  A    between atoms: _17  and  _18
REMARK    8  A    between atoms: _17  and  _20
REMARK    9  A    between atoms: _20  and  _21
REMARK   10  A    between atoms: _24  and  _26
REMARK   11  A    between atoms: _26  and  _27
REMARK   12  A    between atoms: _26  and  _29
REMARK   13  A    between atoms: _29  and  _30
REMARK   14  A    between atoms: _35  and  _37
REMARK   15  A    between atoms: _37  and  _38
REMARK   16  A    between atoms: _40  and  _42
REMARK   17  A    between atoms: _42  and  _43
REMARK   18  A    between atoms: _46  and  _47
REMARK   19  A    between atoms: _52  and  _54
REMARK   20  A    between atoms: _54  and  _55
REMARK   21  A    between atoms: _54  and  _57
REMARK   22  A    between atoms: _57  and  _58
REMARK   23  A    between atoms: _63  and  _65
REMARK   24  A    between atoms: _65  and  _66
REMARK   25  A    between atoms: _68  and  _70
REMARK   26  A    between atoms: _70  and  _71
REMARK   27  A    between atoms: _70  and  _73
REMARK   28  A    between atoms: _73  and  _74
REMARK   29  A    between atoms: _84  and  _86
REMARK   30  A    between atoms: _86  and  _87
REMARK   31  A    between atoms: _86  and  _89
REMARK   32  A    between atoms: _89  and  _90
REMARK   33  A    between atoms: _90  and  _91
REMARK   34  A    between atoms: _91  and  _92
REMARK   35  A    between atoms: _92  and  _93
REMARK   36  A    between atoms: _97  and  _99
REMARK   37  A    between atoms: _99  and  _100
REMARK   38  A    between atoms: _99  and  _102
REMARK   39  A    between atoms: _105  and  _107
REMARK   40  A    between atoms: _107  and  _108
REMARK   41  A    between atoms: _107  and  _110
REMARK   42  A    between atoms: _110  and  _111
REMARK   43  A    between atoms: _114  and  _116
REMARK   44  A    between atoms: _116  and  _117
REMARK   45  A    between atoms: _116  and  _119
REMARK   46  A    between atoms: _119  and  _120
REMARK   47  A    between atoms: _126  and  _128
REMARK   48  A    between atoms: _128  and  _129
REMARK   49  A    between atoms: _128  and  _131
REMARK   50  A    between atoms: _131  and  _132
REMARK   51  A    between atoms: _137  and  _139
REMARK   52  A    between atoms: _139  and  _140
REMARK   53  A    between atoms: _139  and  _142
REMARK   54  A    between atoms: _142  and  _143
REMARK   55  A    between atoms: _143  and  _144
REMARK   56  A    between atoms: _144  and  _145
REMARK   57  A    between atoms: _145  and  _146
REMARK   58  A    between atoms: _150  and  _152
REMARK   59  A    between atoms: _152  and  _153
REMARK   60  A    between atoms: _152  and  _155
REMARK   61  A    between atoms: _155  and  _156
REMARK   62  A    between atoms: _161  and  _162
REMARK   63  A    between atoms: _164  and  _166
REMARK   64  A    between atoms: _166  and  _167
REMARK   65  A    between atoms: _166  and  _169
REMARK   66  A    between atoms: _169  and  _170
REMARK   67  A    between atoms: _175  and  _177
REMARK   68  A    between atoms: _177  and  _178
REMARK   69  A    between atoms: _177  and  _180
REMARK   70  A    between atoms: _180  and  _181
REMARK   71  A    between atoms: _186  and  _188
REMARK   72  A    between atoms: _188  and  _189
REMARK   73  A    between atoms: _191  and  _193
REMARK   74  A    between atoms: _193  and  _194
REMARK   75  A    between atoms: _193  and  _196
REMARK   76  A    between atoms: _196  and  _197
REMARK   77  A    between atoms: _197  and  _198
REMARK   78  A    between atoms: _198  and  _199
REMARK   79  A    between atoms: _208  and  _210
REMARK   80  A    between atoms: _210  and  _211
REMARK   81  A    between atoms: _210  and  _213
REMARK   82  A    between atoms: _213  and  _214
REMARK   83  A    between atoms: _218  and  _219
REMARK   84  A    between atoms: _224  and  _226
REMARK   85  A    between atoms: _226  and  _227
REMARK   86  A    between atoms: _230  and  _232
REMARK   87  A    between atoms: _232  and  _233
REMARK   88  A    between atoms: _232  and  _235
REMARK   89  A    between atoms: _235  and  _236
REMARK   90  A    between atoms: _246  and  _248
REMARK   91  A    between atoms: _248  and  _249
REMARK   92  A    between atoms: _248  and  _251
REMARK   93  A    between atoms: _251  and  _252
REMARK   94  A    between atoms: _252  and  _253
REMARK   95  A    between atoms: _256  and  _258
REMARK   96  A    between atoms: _258  and  _259
REMARK   97  A    between atoms: _258  and  _261
REMARK   98  A    between atoms: _261  and  _262
REMARK   99  A    between atoms: _264  and  _266
REMARK  100  A    between atoms: _266  and  _267
REMARK  101  A    between atoms: _266  and  _269
REMARK  102  A    between atoms: _269  and  _270
REMARK  103  A    between atoms: _275  and  _277
REMARK  104  A    between atoms: _277  and  _278
REMARK  105  A    between atoms: _281  and  _283
REMARK  106  A    between atoms: _283  and  _284
REMARK  107  A    between atoms: _283  and  _286
REMARK  108  A    between atoms: _286  and  _287
REMARK  109  A    between atoms: _290  and  _292
REMARK  110  A    between atoms: _292  and  _293
REMARK  111  A    between atoms: _292  and  _295
REMARK  112  A    between atoms: _295  and  _296
REMARK  113  A    between atoms: _299  and  _301
REMARK  114  A    between atoms: _301  and  _302
REMARK  115  A    between atoms: _301  and  _304
REMARK  116  A    between atoms: _304  and  _305
REMARK  117  A    between atoms: _305  and  _306
REMARK  118  A    between atoms: _311  and  _313
REMARK  119  A    between atoms: _313  and  _314
REMARK  120  A    between atoms: _317  and  _319
REMARK  121  A    between atoms: _319  and  _320
REMARK  122  A    between atoms: _319  and  _322
REMARK  123  A    between atoms: _322  and  _323
REMARK  124  A    between atoms: _325  and  _327
REMARK  125  A    between atoms: _327  and  _328
REMARK  126  A    between atoms: _330  and  _332
REMARK  127  A    between atoms: _332  and  _333
REMARK  128  A    between atoms: _332  and  _335
REMARK  129  A    between atoms: _335  and  _336
REMARK  130  A    between atoms: _336  and  _337
REMARK  131  A    between atoms: _342  and  _344
REMARK  132  A    between atoms: _344  and  _345
REMARK  133  A    between atoms: _348  and  _349
REMARK  134  A    between atoms: _354  and  _356
REMARK  135  A    between atoms: _356  and  _357
REMARK  136  A    between atoms: _356  and  _359
REMARK  137  A    between atoms: _359  and  _360
REMARK  138  A    between atoms: _365  and  _366
REMARK  139  A    between atoms: _368  and  _370
REMARK  140  A    between atoms: _370  and  _371
REMARK  141  A    between atoms: _370  and  _373
REMARK  142  A    between atoms: _373  and  _374
REMARK  143  A    between atoms: _379  and  _380
REMARK  144  A    between atoms: _382  and  _384
REMARK  145  A    between atoms: _384  and  _385
REMARK  146  A    between atoms: _387  and  _389
REMARK  147  A    between atoms: _389  and  _390
REMARK  148  A    between atoms: _389  and  _392
REMARK  149  A    between atoms: _392  and  _393
REMARK  150  A    between atoms: _393  and  _394
REMARK  151  A    between atoms: _399  and  _401
REMARK  152  A    between atoms: _401  and  _402
REMARK  153  A    between atoms: _405  and  _407
REMARK  154  A    between atoms: _407  and  _408
REMARK  155  A    between atoms: _411  and  _413
REMARK  156  A    between atoms: _413  and  _414
REMARK  157  A    between atoms: _413  and  _416
REMARK  158  A    between atoms: _416  and  _417
REMARK  159  A    between atoms: _427  and  _429
REMARK  160  A    between atoms: _429  and  _430
REMARK  161  A    between atoms: _429  and  _432
REMARK  162  A    between atoms: _432  and  _433
REMARK  163  A    between atoms: _439  and  _441
REMARK  164  A    between atoms: _441  and  _442
REMARK  165  A    between atoms: _441  and  _444
REMARK  166  A    between atoms: _444  and  _445
REMARK  167  A    between atoms: _450  and  _451
REMARK  168  A    between atoms: _453  and  _455
REMARK  169  A    between atoms: _455  and  _456
REMARK  170  A    between atoms: _455  and  _458
REMARK  171  A    between atoms: _458  and  _459
REMARK  172  A    between atoms: _469  and  _471
REMARK  173  A    between atoms: _471  and  _472
REMARK  174  A    between atoms: _471  and  _474
REMARK  175  A    between atoms: _474  and  _475
REMARK  176  A    between atoms: _480  and  _481
REMARK  177  A    between atoms: _483  and  _485
REMARK  178  A    between atoms: _485  and  _486
REMARK  179  A    between atoms: _485  and  _488
REMARK  180  A    between atoms: _488  and  _489
REMARK  181  A    between atoms: _495  and  _497
REMARK  182  A    between atoms: _497  and  _498
REMARK  183  A    between atoms: _501  and  _503
REMARK  184  A    between atoms: _503  and  _504
REMARK  185  A    between atoms: _503  and  _506
REMARK  186  A    between atoms: _506  and  _507
REMARK  187  A    between atoms: _509  and  _511
REMARK  188  A    between atoms: _511  and  _512
REMARK  189  A    between atoms: _514  and  _516
REMARK  190  A    between atoms: _516  and  _517
REMARK  191  A    between atoms: _516  and  _519
REMARK  192  A    between atoms: _519  and  _520
REMARK  193  A    between atoms: _520  and  _521
REMARK  194  A    between atoms: _527  and  _528
REMARK  195  A    between atoms: _533  and  _535
REMARK  196  A    between atoms: _535  and  _536
REMARK  197  A    between atoms: _535  and  _538
REMARK  198  A    between atoms: _538  and  _539
REMARK  199  A    between atoms: _544  and  _545
REMARK  200  A    between atoms: _547  and  _549
REMARK  201  A    between atoms: _549  and  _550
REMARK  202  A    between atoms: _549  and  _552
REMARK  203  A    between atoms: _552  and  _553
REMARK  204  A    between atoms: _553  and  _554
REMARK  205  A    between atoms: _554  and  _555
REMARK  206  A    between atoms: _564  and  _566
REMARK  207  A    between atoms: _566  and  _567
REMARK  208  A    between atoms: _566  and  _569
REMARK  209  A    between atoms: _569  and  _570
REMARK  210  A    between atoms: _575  and  _576
REMARK  211  A    between atoms: _578  and  _580
REMARK  212  A    between atoms: _580  and  _581
REMARK  213  A    between atoms: _580  and  _583
REMARK  214  A    between atoms: _583  and  _584
REMARK  215  A    between atoms: _584  and  _585
REMARK  216  A    between atoms: _588  and  _590
REMARK  217  A    between atoms: _590  and  _591
REMARK  218  A    between atoms: _590  and  _593
REMARK  219  A    between atoms: _593  and  _594
REMARK  220  A    between atoms: _594  and  _595
REMARK  221  A    between atoms: _595  and  _596
REMARK                            x       y       z     vdW  Elec       q    Type
REMARK                         _______ _______ _______ _____ _____    ______ ____
ROOT
ATOM      1  O   HOH     1      -3.232   0.590 -15.011  0.00  0.00    +0.000 OA
ENDROOT
TORSDOF 0
REMARK  Name = ../refined-set-2016/4zb8/4zb8_pocket.pdb
REMARK  221 active torsions:
REMARK  status: ('A' for Active; 'I' for Inactive)
REMARK    1  A    between atoms: _1  and  _3
REMARK    2  A    between atoms: _3  and  _4
REMARK    3  A    between atoms: _3  and  _6
REMARK    4  A    between atoms: _6  and  _7
REMARK    5  A    between atoms: _12  and  _13
REMARK    6  A    between atoms: _15  and  _17
REMARK    7  A    between atoms: _17  and  _18
REMARK    8  A    between atoms: _17  and  _20
REMARK    9  A    between atoms: _20  and  _21
REMARK   10  A    between atoms: _24  and  _26
REMARK   11  A    between atoms: _26  and  _27
REMARK   12  A    between atoms: _26  and  _29
REMARK   13  A    between atoms: _29  and  _30
REMARK   14  A    between atoms: _35  and  _37
REMARK   15  A    between atoms: _37  and  _38
REMARK   16  A    between atoms: _40  and  _42
REMARK   17  A    between atoms: _42  and  _43
REMARK   18  A    between atoms: _46  and  _47
REMARK   19  A    between atoms: _52  and  _54
REMARK   20  A    between atoms: _54  and  _55
REMARK   21  A    between atoms: _54  and  _57
REMARK   22  A    between atoms: _57  and  _58
REMARK   23  A    between atoms: _63  and  _65
REMARK   24  A    between atoms: _65  and  _66
REMARK   25  A    between atoms: _68  and  _70
REMARK   26  A    between atoms: _70  and  _71
REMARK   27  A    between atoms: _70  and  _73
REMARK   28  A    between atoms: _73  and  _74
REMARK   29  A    between atoms: _84  and  _86
REMARK   30  A    between atoms: _86  and  _87
REMARK   31  A    between atoms: _86  and  _89
REMARK   32  A    between atoms: _89  and  _90
REMARK   33  A    between atoms: _90  and  _91
REMARK   34  A    between atoms: _91  and  _92
REMARK   35  A    between atoms: _92  and  _93
REMARK   36  A    between atoms: _97  and  _99
REMARK   37  A    between atoms: _99  and  _100
REMARK   38  A    between atoms: _99  and  _102
REMARK   39  A    between atoms: _105  and  _107
REMARK   40  A    between atoms: _107  and  _108
REMARK   41  A    between atoms: _107  and  _110
REMARK   42  A    between atoms: _110  and  _111
REMARK   43  A    between atoms: _114  and  _116
REMARK   44  A    between atoms: _116  and  _117
REMARK   45  A    between atoms: _116  and  _119
REMARK   46  A    between atoms: _119  and  _120
REMARK   47  A    between atoms: _126  and  _128
REMARK   48  A    between atoms: _128  and  _129
REMARK   49  A    between atoms: _128  and  _131
REMARK   50  A    between atoms: _131  and  _132
REMARK   51  A    between atoms: _137  and  _139
REMARK   52  A    between atoms: _139  and  _140
REMARK   53  A    between atoms: _139  and  _142
REMARK   54  A    between atoms: _142  and  _143
REMARK   55  A    between atoms: _143  and  _144
REMARK   56  A    between atoms: _144  and  _145
REMARK   57  A    between atoms: _145  and  _146
REMARK   58  A    between atoms: _150  and  _152
REMARK   59  A    between atoms: _152  and  _153
REMARK   60  A    between atoms: _152  and  _155
REMARK   61  A    between atoms: _155  and  _156
REMARK   62  A    between atoms: _161  and  _162
REMARK   63  A    between atoms: _164  and  _166
REMARK   64  A    between atoms: _166  and  _167
REMARK   65  A    between atoms: _166  and  _169
REMARK   66  A    between atoms: _169  and  _170
REMARK   67  A    between atoms: _175  and  _177
REMARK   68  A    between atoms: _177  and  _178
REMARK   69  A    between atoms: _177  and  _180
REMARK   70  A    between atoms: _180  and  _181
REMARK   71  A    between atoms: _186  and  _188
REMARK   72  A    between atoms: _188  and  _189
REMARK   73  A    between atoms: _191  and  _193
REMARK   74  A    between atoms: _193  and  _194
REMARK   75  A    between atoms: _193  and  _196
REMARK   76  A    between atoms: _196  and  _197
REMARK   77  A    between atoms: _197  and  _198
REMARK   78  A    between atoms: _198  and  _199
REMARK   79  A    between atoms: _208  and  _210
REMARK   80  A    between atoms: _210  and  _211
REMARK   81  A    between atoms: _210  and  _213
REMARK   82  A    between atoms: _213  and  _214
REMARK   83  A    between atoms: _218  and  _219
REMARK   84  A    between atoms: _224  and  _226
REMARK   85  A    between atoms: _226  and  _227
REMARK   86  A    between atoms: _230  and  _232
REMARK   87  A    between atoms: _232  and  _233
REMARK   88  A    between atoms: _232  and  _235
REMARK   89  A    between atoms: _235  and  _236
REMARK   90  A    between atoms: _246  and  _248
REMARK   91  A    between atoms: _248  and  _249
REMARK   92  A    between atoms: _248  and  _251
REMARK   93  A    between atoms: _251  and  _252
REMARK   94  A    between atoms: _252  and  _253
REMARK   95  A    between atoms: _256  and  _258
REMARK   96  A    between atoms: _258  and  _259
REMARK   97  A    between atoms: _258  and  _261
REMARK   98  A    between atoms: _261  and  _262
REMARK   99  A    between atoms: _264  and  _266
REMARK  100  A    between atoms: _266  and  _267
REMARK  101  A    between atoms: _266  and  _269
REMARK  102  A    between atoms: _269  and  _270
REMARK  103  A    between atoms: _275  and  _277
REMARK  104  A    between atoms: _277  and  _278
REMARK  105  A    between atoms: _281  and  _283
REMARK  106  A    between atoms: _283  and  _284
REMARK  107  A    between atoms: _283  and  _286
REMARK  108  A    between atoms: _286  and  _287
REMARK  109  A    between atoms: _290  and  _292
REMARK  110  A    between atoms: _292  and  _293
REMARK  111  A    between atoms: _292  and  _295
REMARK  112  A    between atoms: _295  and  _296
REMARK  113  A    between atoms: _299  and  _301
REMARK  114  A    between atoms: _301  and  _302
REMARK  115  A    between atoms: _301  and  _304
REMARK  116  A    between atoms: _304  and  _305
REMARK  117  A    between atoms: _305  and  _306
REMARK  118  A    between atoms: _311  and  _313
REMARK  119  A    between atoms: _313  and  _314
REMARK  120  A    between atoms: _317  and  _319
REMARK  121  A    between atoms: _319  and  _320
REMARK  122  A    between atoms: _319  and  _322
REMARK  123  A    between atoms: _322  and  _323
REMARK  124  A    between atoms: _325  and  _327
REMARK  125  A    between atoms: _327  and  _328
REMARK  126  A    between atoms: _330  and  _332
REMARK  127  A    between atoms: _332  and  _333
REMARK  128  A    between atoms: _332  and  _335
REMARK  129  A    between atoms: _335  and  _336
REMARK  130  A    between atoms: _336  and  _337
REMARK  131  A    between atoms: _342  and  _344
REMARK  132  A    between atoms: _344  and  _345
REMARK  133  A    between atoms: _348  and  _349
REMARK  134  A    between atoms: _354  and  _356
REMARK  135  A    between atoms: _356  and  _357
REMARK  136  A    between atoms: _356  and  _359
REMARK  137  A    between atoms: _359  and  _360
REMARK  138  A    between atoms: _365  and  _366
REMARK  139  A    between atoms: _368  and  _370
REMARK  140  A    between atoms: _370  and  _371
REMARK  141  A    between atoms: _370  and  _373
REMARK  142  A    between atoms: _373  and  _374
REMARK  143  A    between atoms: _379  and  _380
REMARK  144  A    between atoms: _382  and  _384
REMARK  145  A    between atoms: _384  and  _385
REMARK  146  A    between atoms: _387  and  _389
REMARK  147  A    between atoms: _389  and  _390
REMARK  148  A    between atoms: _389  and  _392
REMARK  149  A    between atoms: _392  and  _393
REMARK  150  A    between atoms: _393  and  _394
REMARK  151  A    between atoms: _399  and  _401
REMARK  152  A    between atoms: _401  and  _402
REMARK  153  A    between atoms: _405  and  _407
REMARK  154  A    between atoms: _407  and  _408
REMARK  155  A    between atoms: _411  and  _413
REMARK  156  A    between atoms: _413  and  _414
REMARK  157  A    between atoms: _413  and  _416
REMARK  158  A    between atoms: _416  and  _417
REMARK  159  A    between atoms: _427  and  _429
REMARK  160  A    between atoms: _429  and  _430
REMARK  161  A    between atoms: _429  and  _432
REMARK  162  A    between atoms: _432  and  _433
REMARK  163  A    between atoms: _439  and  _441
REMARK  164  A    between atoms: _441  and  _442
REMARK  165  A    between atoms: _441  and  _444
REMARK  166  A    between atoms: _444  and  _445
REMARK  167  A    between atoms: _450  and  _451
REMARK  168  A    between atoms: _453  and  _455
REMARK  169  A    between atoms: _455  and  _456
REMARK  170  A    between atoms: _455  and  _458
REMARK  171  A    between atoms: _458  and  _459
REMARK  172  A    between atoms: _469  and  _471
REMARK  173  A    between atoms: _471  and  _472
REMARK  174  A    between atoms: _471  and  _474
REMARK  175  A    between atoms: _474  and  _475
REMARK  176  A    between atoms: _480  and  _481
REMARK  177  A    between atoms: _483  and  _485
REMARK  178  A    between atoms: _485  and  _486
REMARK  179  A    between atoms: _485  and  _488
REMARK  180  A    between atoms: _488  and  _489
REMARK  181  A    between atoms: _495  and  _497
REMARK  182  A    between atoms: _497  and  _498
REMARK  183  A    between atoms: _501  and  _503
REMARK  184  A    between atoms: _503  and  _504
REMARK  185  A    between atoms: _503  and  _506
REMARK  186  A    between atoms: _506  and  _507
REMARK  187  A    between atoms: _509  and  _511
REMARK  188  A    between atoms: _511  and  _512
REMARK  189  A    between atoms: _514  and  _516
REMARK  190  A    between atoms: _516  and  _517
REMARK  191  A    between atoms: _516  and  _519
REMARK  192  A    between atoms: _519  and  _520
REMARK  193  A    between atoms: _520  and  _521
REMARK  194  A    between atoms: _527  and  _528
REMARK  195  A    between atoms: _533  and  _535
REMARK  196  A    between atoms: _535  and  _536
REMARK  197  A    between atoms: _535  and  _538
REMARK  198  A    between atoms: _538  and  _539
REMARK  199  A    between atoms: _544  and  _545
REMARK  200  A    between atoms: _547  and  _549
REMARK  201  A    between atoms: _549  and  _550
REMARK  202  A    between atoms: _549  and  _552
REMARK  203  A    between atoms: _552  and  _553
REMARK  204  A    between atoms: _553  and  _554
REMARK  205  A    between atoms: _554  and  _555
REMARK  206  A    between atoms: _564  and  _566
REMARK  207  A    between atoms: _566  and  _567
REMARK  208  A    between atoms: _566  and  _569
REMARK  209  A    between atoms: _569  and  _570
REMARK  210  A    between atoms: _575  and  _576
REMARK  211  A    between atoms: _578  and  _580
REMARK  212  A    between atoms: _580  and  _581
REMARK  213  A    between atoms: _580  and  _583
REMARK  214  A    between atoms: _583  and  _584
REMARK  215  A    between atoms: _584  and  _585
REMARK  216  A    between atoms: _588  and  _590
REMARK  217  A    between atoms: _590  and  _591
REMARK  218  A    between atoms: _590  and  _593
REMARK  219  A    between atoms: _593  and  _594
REMARK  220  A    between atoms: _594  and  _595
REMARK  221  A    between atoms: _595  and  _596
REMARK                            x       y       z     vdW  Elec       q    Type
REMARK                         _______ _______ _______ _____ _____    ______ ____
ROOT
ATOM      1  O   HOH     1      -0.544  15.041  -1.530  0.00  0.00    +0.000 OA
ENDROOT
TORSDOF 0
REMARK  Name = ../refined-set-2016/4zb8/4zb8_pocket.pdb
REMARK  221 active torsions:
REMARK  status: ('A' for Active; 'I' for Inactive)
REMARK    1  A    between atoms: _1  and  _3
REMARK    2  A    between atoms: _3  and  _4
REMARK    3  A    between atoms: _3  and  _6
REMARK    4  A    between atoms: _6  and  _7
REMARK    5  A    between atoms: _12  and  _13
REMARK    6  A    between atoms: _15  and  _17
REMARK    7  A    between atoms: _17  and  _18
REMARK    8  A    between atoms: _17  and  _20
REMARK    9  A    between atoms: _20  and  _21
REMARK   10  A    between atoms: _24  and  _26
REMARK   11  A    between atoms: _26  and  _27
REMARK   12  A    between atoms: _26  and  _29
REMARK   13  A    between atoms: _29  and  _30
REMARK   14  A    between atoms: _35  and  _37
REMARK   15  A    between atoms: _37  and  _38
REMARK   16  A    between atoms: _40  and  _42
REMARK   17  A    between atoms: _42  and  _43
REMARK   18  A    between atoms: _46  and  _47
REMARK   19  A    between atoms: _52  and  _54
REMARK   20  A    between atoms: _54  and  _55
REMARK   21  A    between atoms: _54  and  _57
REMARK   22  A    between atoms: _57  and  _58
REMARK   23  A    between atoms: _63  and  _65
REMARK   24  A    between atoms: _65  and  _66
REMARK   25  A    between atoms: _68  and  _70
REMARK   26  A    between atoms: _70  and  _71
REMARK   27  A    between atoms: _70  and  _73
REMARK   28  A    between atoms: _73  and  _74
REMARK   29  A    between atoms: _84  and  _86
REMARK   30  A    between atoms: _86  and  _87
REMARK   31  A    between atoms: _86  and  _89
REMARK   32  A    between atoms: _89  and  _90
REMARK   33  A    between atoms: _90  and  _91
REMARK   34  A    between atoms: _91  and  _92
REMARK   35  A    between atoms: _92  and  _93
REMARK   36  A    between atoms: _97  and  _99
REMARK   37  A    between atoms: _99  and  _100
REMARK   38  A    between atoms: _99  and  _102
REMARK   39  A    between atoms: _105  and  _107
REMARK   40  A    between atoms: _107  and  _108
REMARK   41  A    between atoms: _107  and  _110
REMARK   42  A    between atoms: _110  and  _111
REMARK   43  A    between atoms: _114  and  _116
REMARK   44  A    between atoms: _116  and  _117
REMARK   45  A    between atoms: _116  and  _119
REMARK   46  A    between atoms: _119  and  _120
REMARK   47  A    between atoms: _126  and  _128
REMARK   48  A    between atoms: _128  and  _129
REMARK   49  A    between atoms: _128  and  _131
REMARK   50  A    between atoms: _131  and  _132
REMARK   51  A    between atoms: _137  and  _139
REMARK   52  A    between atoms: _139  and  _140
REMARK   53  A    between atoms: _139  and  _142
REMARK   54  A    between atoms: _142  and  _143
REMARK   55  A    between atoms: _143  and  _144
REMARK   56  A    between atoms: _144  and  _145
REMARK   57  A    between atoms: _145  and  _146
REMARK   58  A    between atoms: _150  and  _152
REMARK   59  A    between atoms: _152  and  _153
REMARK   60  A    between atoms: _152  and  _155
REMARK   61  A    between atoms: _155  and  _156
REMARK   62  A    between atoms: _161  and  _162
REMARK   63  A    between atoms: _164  and  _166
REMARK   64  A    between atoms: _166  and  _167
REMARK   65  A    between atoms: _166  and  _169
REMARK   66  A    between atoms: _169  and  _170
REMARK   67  A    between atoms: _175  and  _177
REMARK   68  A    between atoms: _177  and  _178
REMARK   69  A    between atoms: _177  and  _180
REMARK   70  A    between atoms: _180  and  _181
REMARK   71  A    between atoms: _186  and  _188
REMARK   72  A    between atoms: _188  and  _189
REMARK   73  A    between atoms: _191  and  _193
REMARK   74  A    between atoms: _193  and  _194
REMARK   75  A    between atoms: _193  and  _196
REMARK   76  A    between atoms: _196  and  _197
REMARK   77  A    between atoms: _197  and  _198
REMARK   78  A    between atoms: _198  and  _199
REMARK   79  A    between atoms: _208  and  _210
REMARK   80  A    between atoms: _210  and  _211
REMARK   81  A    between atoms: _210  and  _213
REMARK   82  A    between atoms: _213  and  _214
REMARK   83  A    between atoms: _218  and  _219
REMARK   84  A    between atoms: _224  and  _226
REMARK   85  A    between atoms: _226  and  _227
REMARK   86  A    between atoms: _230  and  _232
REMARK   87  A    between atoms: _232  and  _233
REMARK   88  A    between atoms: _232  and  _235
REMARK   89  A    between atoms: _235  and  _236
REMARK   90  A    between atoms: _246  and  _248
REMARK   91  A    between atoms: _248  and  _249
REMARK   92  A    between atoms: _248  and  _251
REMARK   93  A    between atoms: _251  and  _252
REMARK   94  A    between atoms: _252  and  _253
REMARK   95  A    between atoms: _256  and  _258
REMARK   96  A    between atoms: _258  and  _259
REMARK   97  A    between atoms: _258  and  _261
REMARK   98  A    between atoms: _261  and  _262
REMARK   99  A    between atoms: _264  and  _266
REMARK  100  A    between atoms: _266  and  _267
REMARK  101  A    between atoms: _266  and  _269
REMARK  102  A    between atoms: _269  and  _270
REMARK  103  A    between atoms: _275  and  _277
REMARK  104  A    between atoms: _277  and  _278
REMARK  105  A    between atoms: _281  and  _283
REMARK  106  A    between atoms: _283  and  _284
REMARK  107  A    between atoms: _283  and  _286
REMARK  108  A    between atoms: _286  and  _287
REMARK  109  A    between atoms: _290  and  _292
REMARK  110  A    between atoms: _292  and  _293
REMARK  111  A    between atoms: _292  and  _295
REMARK  112  A    between atoms: _295  and  _296
REMARK  113  A    between atoms: _299  and  _301
REMARK  114  A    between atoms: _301  and  _302
REMARK  115  A    between atoms: _301  and  _304
REMARK  116  A    between atoms: _304  and  _305
REMARK  117  A    between atoms: _305  and  _306
REMARK  118  A    between atoms: _311  and  _313
REMARK  119  A    between atoms: _313  and  _314
REMARK  120  A    between atoms: _317  and  _319
REMARK  121  A    between atoms: _319  and  _320
REMARK  122  A    between atoms: _319  and  _322
REMARK  123  A    between atoms: _322  and  _323
REMARK  124  A    between atoms: _325  and  _327
REMARK  125  A    between atoms: _327  and  _328
REMARK  126  A    between atoms: _330  and  _332
REMARK  127  A    between atoms: _332  and  _333
REMARK  128  A    between atoms: _332  and  _335
REMARK  129  A    between atoms: _335  and  _336
REMARK  130  A    between atoms: _336  and  _337
REMARK  131  A    between atoms: _342  and  _344
REMARK  132  A    between atoms: _344  and  _345
REMARK  133  A    between atoms: _348  and  _349
REMARK  134  A    between atoms: _354  and  _356
REMARK  135  A    between atoms: _356  and  _357
REMARK  136  A    between atoms: _356  and  _359
REMARK  137  A    between atoms: _359  and  _360
REMARK  138  A    between atoms: _365  and  _366
REMARK  139  A    between atoms: _368  and  _370
REMARK  140  A    between atoms: _370  and  _371
REMARK  141  A    between atoms: _370  and  _373
REMARK  142  A    between atoms: _373  and  _374
REMARK  143  A    between atoms: _379  and  _380
REMARK  144  A    between atoms: _382  and  _384
REMARK  145  A    between atoms: _384  and  _385
REMARK  146  A    between atoms: _387  and  _389
REMARK  147  A    between atoms: _389  and  _390
REMARK  148  A    between atoms: _389  and  _392
REMARK  149  A    between atoms: _392  and  _393
REMARK  150  A    between atoms: _393  and  _394
REMARK  151  A    between atoms: _399  and  _401
REMARK  152  A    between atoms: _401  and  _402
REMARK  153  A    between atoms: _405  and  _407
REMARK  154  A    between atoms: _407  and  _408
REMARK  155  A    between atoms: _411  and  _413
REMARK  156  A    between atoms: _413  and  _414
REMARK  157  A    between atoms: _413  and  _416
REMARK  158  A    between atoms: _416  and  _417
REMARK  159  A    between atoms: _427  and  _429
REMARK  160  A    between atoms: _429  and  _430
REMARK  161  A    between atoms: _429  and  _432
REMARK  162  A    between atoms: _432  and  _433
REMARK  163  A    between atoms: _439  and  _441
REMARK  164  A    between atoms: _441  and  _442
REMARK  165  A    between atoms: _441  and  _444
REMARK  166  A    between atoms: _444  and  _445
REMARK  167  A    between atoms: _450  and  _451
REMARK  168  A    between atoms: _453  and  _455
REMARK  169  A    between atoms: _455  and  _456
REMARK  170  A    between atoms: _455  and  _458
REMARK  171  A    between atoms: _458  and  _459
REMARK  172  A    between atoms: _469  and  _471
REMARK  173  A    between atoms: _471  and  _472
REMARK  174  A    between atoms: _471  and  _474
REMARK  175  A    between atoms: _474  and  _475
REMARK  176  A    between atoms: _480  and  _481
REMARK  177  A    between atoms: _483  and  _485
REMARK  178  A    between atoms: _485  and  _486
REMARK  179  A    between atoms: _485  and  _488
REMARK  180  A    between atoms: _488  and  _489
REMARK  181  A    between atoms: _495  and  _497
REMARK  182  A    between atoms: _497  and  _498
REMARK  183  A    between atoms: _501  and  _503
REMARK  184  A    between atoms: _503  and  _504
REMARK  185  A    between atoms: _503  and  _506
REMARK  186  A    between atoms: _506  and  _507
REMARK  187  A    between atoms: _509  and  _511
REMARK  188  A    between atoms: _511  and  _512
REMARK  189  A    between atoms: _514  and  _516
REMARK  190  A    between atoms: _516  and  _517
REMARK  191  A    between atoms: _516  and  _519
REMARK  192  A    between atoms: _519  and  _520
REMARK  193  A    between atoms: _520  and  _521
REMARK  194  A    between atoms: _527  and  _528
REMARK  195  A    between atoms: _533  and  _535
REMARK  196  A    between atoms: _535  and  _536
REMARK  197  A    between atoms: _535  and  _538
REMARK  198  A    between atoms: _538  and  _539
REMARK  199  A    between atoms: _544  and  _545
REMARK  200  A    between atoms: _547  and  _549
REMARK  201  A    between atoms: _549  and  _550
REMARK  202  A    between atoms: _549  and  _552
REMARK  203  A    between atoms: _552  and  _553
REMARK  204  A    between atoms: _553  and  _554
REMARK  205  A    between atoms: _554  and  _555
REMARK  206  A    between atoms: _564  and  _566
REMARK  207  A    between atoms: _566  and  _567
REMARK  208  A    between atoms: _566  and  _569
REMARK  209  A    between atoms: _569  and  _570
REMARK  210  A    between atoms: _575  and  _576
REMARK  211  A    between atoms: _578  and  _580
REMARK  212  A    between atoms: _580  and  _581
REMARK  213  A    between atoms: _580  and  _583
REMARK  214  A    between atoms: _583  and  _584
REMARK  215  A    between atoms: _584  and  _585
REMARK  216  A    between atoms: _588  and  _590
REMARK  217  A    between atoms: _590  and  _591
REMARK  218  A    between atoms: _590  and  _593
REMARK  219  A    between atoms: _593  and  _594
REMARK  220  A    between atoms: _594  and  _595
REMARK  221  A    between atoms: _595  and  _596
REMARK                            x       y       z     vdW  Elec       q    Type
REMARK                         _______ _______ _______ _____ _____    ______ ____
ROOT
ATOM      1  O   HOH     1       0.685  11.126   0.584  0.00  0.00    +0.000 OA
ENDROOT
TORSDOF 0
REMARK  Name = ../refined-set-2016/4zb8/4zb8_pocket.pdb
REMARK  221 active torsions:
REMARK  status: ('A' for Active; 'I' for Inactive)
REMARK    1  A    between atoms: _1  and  _3
REMARK    2  A    between atoms: _3  and  _4
REMARK    3  A    between atoms: _3  and  _6
REMARK    4  A    between atoms: _6  and  _7
REMARK    5  A    between atoms: _12  and  _13
REMARK    6  A    between atoms: _15  and  _17
REMARK    7  A    between atoms: _17  and  _18
REMARK    8  A    between atoms: _17  and  _20
REMARK    9  A    between atoms: _20  and  _21
REMARK   10  A    between atoms: _24  and  _26
REMARK   11  A    between atoms: _26  and  _27
REMARK   12  A    between atoms: _26  and  _29
REMARK   13  A    between atoms: _29  and  _30
REMARK   14  A    between atoms: _35  and  _37
REMARK   15  A    between atoms: _37  and  _38
REMARK   16  A    between atoms: _40  and  _42
REMARK   17  A    between atoms: _42  and  _43
REMARK   18  A    between atoms: _46  and  _47
REMARK   19  A    between atoms: _52  and  _54
REMARK   20  A    between atoms: _54  and  _55
REMARK   21  A    between atoms: _54  and  _57
REMARK   22  A    between atoms: _57  and  _58
REMARK   23  A    between atoms: _63  and  _65
REMARK   24  A    between atoms: _65  and  _66
REMARK   25  A    between atoms: _68  and  _70
REMARK   26  A    between atoms: _70  and  _71
REMARK   27  A    between atoms: _70  and  _73
REMARK   28  A    between atoms: _73  and  _74
REMARK   29  A    between atoms: _84  and  _86
REMARK   30  A    between atoms: _86  and  _87
REMARK   31  A    between atoms: _86  and  _89
REMARK   32  A    between atoms: _89  and  _90
REMARK   33  A    between atoms: _90  and  _91
REMARK   34  A    between atoms: _91  and  _92
REMARK   35  A    between atoms: _92  and  _93
REMARK   36  A    between atoms: _97  and  _99
REMARK   37  A    between atoms: _99  and  _100
REMARK   38  A    between atoms: _99  and  _102
REMARK   39  A    between atoms: _105  and  _107
REMARK   40  A    between atoms: _107  and  _108
REMARK   41  A    between atoms: _107  and  _110
REMARK   42  A    between atoms: _110  and  _111
REMARK   43  A    between atoms: _114  and  _116
REMARK   44  A    between atoms: _116  and  _117
REMARK   45  A    between atoms: _116  and  _119
REMARK   46  A    between atoms: _119  and  _120
REMARK   47  A    between atoms: _126  and  _128
REMARK   48  A    between atoms: _128  and  _129
REMARK   49  A    between atoms: _128  and  _131
REMARK   50  A    between atoms: _131  and  _132
REMARK   51  A    between atoms: _137  and  _139
REMARK   52  A    between atoms: _139  and  _140
REMARK   53  A    between atoms: _139  and  _142
REMARK   54  A    between atoms: _142  and  _143
REMARK   55  A    between atoms: _143  and  _144
REMARK   56  A    between atoms: _144  and  _145
REMARK   57  A    between atoms: _145  and  _146
REMARK   58  A    between atoms: _150  and  _152
REMARK   59  A    between atoms: _152  and  _153
REMARK   60  A    between atoms: _152  and  _155
REMARK   61  A    between atoms: _155  and  _156
REMARK   62  A    between atoms: _161  and  _162
REMARK   63  A    between atoms: _164  and  _166
REMARK   64  A    between atoms: _166  and  _167
REMARK   65  A    between atoms: _166  and  _169
REMARK   66  A    between atoms: _169  and  _170
REMARK   67  A    between atoms: _175  and  _177
REMARK   68  A    between atoms: _177  and  _178
REMARK   69  A    between atoms: _177  and  _180
REMARK   70  A    between atoms: _180  and  _181
REMARK   71  A    between atoms: _186  and  _188
REMARK   72  A    between atoms: _188  and  _189
REMARK   73  A    between atoms: _191  and  _193
REMARK   74  A    between atoms: _193  and  _194
REMARK   75  A    between atoms: _193  and  _196
REMARK   76  A    between atoms: _196  and  _197
REMARK   77  A    between atoms: _197  and  _198
REMARK   78  A    between atoms: _198  and  _199
REMARK   79  A    between atoms: _208  and  _210
REMARK   80  A    between atoms: _210  and  _211
REMARK   81  A    between atoms: _210  and  _213
REMARK   82  A    between atoms: _213  and  _214
REMARK   83  A    between atoms: _218  and  _219
REMARK   84  A    between atoms: _224  and  _226
REMARK   85  A    between atoms: _226  and  _227
REMARK   86  A    between atoms: _230  and  _232
REMARK   87  A    between atoms: _232  and  _233
REMARK   88  A    between atoms: _232  and  _235
REMARK   89  A    between atoms: _235  and  _236
REMARK   90  A    between atoms: _246  and  _248
REMARK   91  A    between atoms: _248  and  _249
REMARK   92  A    between atoms: _248  and  _251
REMARK   93  A    between atoms: _251  and  _252
REMARK   94  A    between atoms: _252  and  _253
REMARK   95  A    between atoms: _256  and  _258
REMARK   96  A    between atoms: _258  and  _259
REMARK   97  A    between atoms: _258  and  _261
REMARK   98  A    between atoms: _261  and  _262
REMARK   99  A    between atoms: _264  and  _266
REMARK  100  A    between atoms: _266  and  _267
REMARK  101  A    between atoms: _266  and  _269
REMARK  102  A    between atoms: _269  and  _270
REMARK  103  A    between atoms: _275  and  _277
REMARK  104  A    between atoms: _277  and  _278
REMARK  105  A    between atoms: _281  and  _283
REMARK  106  A    between atoms: _283  and  _284
REMARK  107  A    between atoms: _283  and  _286
REMARK  108  A    between atoms: _286  and  _287
REMARK  109  A    between atoms: _290  and  _292
REMARK  110  A    between atoms: _292  and  _293
REMARK  111  A    between atoms: _292  and  _295
REMARK  112  A    between atoms: _295  and  _296
REMARK  113  A    between atoms: _299  and  _301
REMARK  114  A    between atoms: _301  and  _302
REMARK  115  A    between atoms: _301  and  _304
REMARK  116  A    between atoms: _304  and  _305
REMARK  117  A    between atoms: _305  and  _306
REMARK  118  A    between atoms: _311  and  _313
REMARK  119  A    between atoms: _313  and  _314
REMARK  120  A    between atoms: _317  and  _319
REMARK  121  A    between atoms: _319  and  _320
REMARK  122  A    between atoms: _319  and  _322
REMARK  123  A    between atoms: _322  and  _323
REMARK  124  A    between atoms: _325  and  _327
REMARK  125  A    between atoms: _327  and  _328
REMARK  126  A    between atoms: _330  and  _332
REMARK  127  A    between atoms: _332  and  _333
REMARK  128  A    between atoms: _332  and  _335
REMARK  129  A    between atoms: _335  and  _336
REMARK  130  A    between atoms: _336  and  _337
REMARK  131  A    between atoms: _342  and  _344
REMARK  132  A    between atoms: _344  and  _345
REMARK  133  A    between atoms: _348  and  _349
REMARK  134  A    between atoms: _354  and  _356
REMARK  135  A    between atoms: _356  and  _357
REMARK  136  A    between atoms: _356  and  _359
REMARK  137  A    between atoms: _359  and  _360
REMARK  138  A    between atoms: _365  and  _366
REMARK  139  A    between atoms: _368  and  _370
REMARK  140  A    between atoms: _370  and  _371
REMARK  141  A    between atoms: _370  and  _373
REMARK  142  A    between atoms: _373  and  _374
REMARK  143  A    between atoms: _379  and  _380
REMARK  144  A    between atoms: _382  and  _384
REMARK  145  A    between atoms: _384  and  _385
REMARK  146  A    between atoms: _387  and  _389
REMARK  147  A    between atoms: _389  and  _390
REMARK  148  A    between atoms: _389  and  _392
REMARK  149  A    between atoms: _392  and  _393
REMARK  150  A    between atoms: _393  and  _394
REMARK  151  A    between atoms: _399  and  _401
REMARK  152  A    between atoms: _401  and  _402
REMARK  153  A    between atoms: _405  and  _407
REMARK  154  A    between atoms: _407  and  _408
REMARK  155  A    between atoms: _411  and  _413
REMARK  156  A    between atoms: _413  and  _414
REMARK  157  A    between atoms: _413  and  _416
REMARK  158  A    between atoms: _416  and  _417
REMARK  159  A    between atoms: _427  and  _429
REMARK  160  A    between atoms: _429  and  _430
REMARK  161  A    between atoms: _429  and  _432
REMARK  162  A    between atoms: _432  and  _433
REMARK  163  A    between atoms: _439  and  _441
REMARK  164  A    between atoms: _441  and  _442
REMARK  165  A    between atoms: _441  and  _444
REMARK  166  A    between atoms: _444  and  _445
REMARK  167  A    between atoms: _450  and  _451
REMARK  168  A    between atoms: _453  and  _455
REMARK  169  A    between atoms: _455  and  _456
REMARK  170  A    between atoms: _455  and  _458
REMARK  171  A    between atoms: _458  and  _459
REMARK  172  A    between atoms: _469  and  _471
REMARK  173  A    between atoms: _471  and  _472
REMARK  174  A    between atoms: _471  and  _474
REMARK  175  A    between atoms: _474  and  _475
REMARK  176  A    between atoms: _480  and  _481
REMARK  177  A    between atoms: _483  and  _485
REMARK  178  A    between atoms: _485  and  _486
REMARK  179  A    between atoms: _485  and  _488
REMARK  180  A    between atoms: _488  and  _489
REMARK  181  A    between atoms: _495  and  _497
REMARK  182  A    between atoms: _497  and  _498
REMARK  183  A    between atoms: _501  and  _503
REMARK  184  A    between atoms: _503  and  _504
REMARK  185  A    between atoms: _503  and  _506
REMARK  186  A    between atoms: _506  and  _507
REMARK  187  A    between atoms: _509  and  _511
REMARK  188  A    between atoms: _511  and  _512
REMARK  189  A    between atoms: _514  and  _516
REMARK  190  A    between atoms: _516  and  _517
REMARK  191  A    between atoms: _516  and  _519
REMARK  192  A    between atoms: _519  and  _520
REMARK  193  A    between atoms: _520  and  _521
REMARK  194  A    between atoms: _527  and  _528
REMARK  195  A    between atoms: _533  and  _535
REMARK  196  A    between atoms: _535  and  _536
REMARK  197  A    between atoms: _535  and  _538
REMARK  198  A    between atoms: _538  and  _539
REMARK  199  A    between atoms: _544  and  _545
REMARK  200  A    between atoms: _547  and  _549
REMARK  201  A    between atoms: _549  and  _550
REMARK  202  A    between atoms: _549  and  _552
REMARK  203  A    between atoms: _552  and  _553
REMARK  204  A    between atoms: _553  and  _554
REMARK  205  A    between atoms: _554  and  _555
REMARK  206  A    between atoms: _564  and  _566
REMARK  207  A    between atoms: _566  and  _567
REMARK  208  A    between atoms: _566  and  _569
REMARK  209  A    between atoms: _569  and  _570
REMARK  210  A    between atoms: _575  and  _576
REMARK  211  A    between atoms: _578  and  _580
REMARK  212  A    between atoms: _580  and  _581
REMARK  213  A    between atoms: _580  and  _583
REMARK  214  A    between atoms: _583  and  _584
REMARK  215  A    between atoms: _584  and  _585
REMARK  216  A    between atoms: _588  and  _590
REMARK  217  A    between atoms: _590  and  _591
REMARK  218  A    between atoms: _590  and  _593
REMARK  219  A    between atoms: _593  and  _594
REMARK  220  A    between atoms: _594  and  _595
REMARK  221  A    between atoms: _595  and  _596
REMARK                            x       y       z     vdW  Elec       q    Type
REMARK                         _______ _______ _______ _____ _____    ______ ____
ROOT
ATOM      1  O   HOH     1      -5.883   7.674   0.685  0.00  0.00    +0.000 OA
ENDROOT
TORSDOF 0
REMARK  Name = ../refined-set-2016/4zb8/4zb8_pocket.pdb
REMARK  221 active torsions:
REMARK  status: ('A' for Active; 'I' for Inactive)
REMARK    1  A    between atoms: _1  and  _3
REMARK    2  A    between atoms: _3  and  _4
REMARK    3  A    between atoms: _3  and  _6
REMARK    4  A    between atoms: _6  and  _7
REMARK    5  A    between atoms: _12  and  _13
REMARK    6  A    between atoms: _15  and  _17
REMARK    7  A    between atoms: _17  and  _18
REMARK    8  A    between atoms: _17  and  _20
REMARK    9  A    between atoms: _20  and  _21
REMARK   10  A    between atoms: _24  and  _26
REMARK   11  A    between atoms: _26  and  _27
REMARK   12  A    between atoms: _26  and  _29
REMARK   13  A    between atoms: _29  and  _30
REMARK   14  A    between atoms: _35  and  _37
REMARK   15  A    between atoms: _37  and  _38
REMARK   16  A    between atoms: _40  and  _42
REMARK   17  A    between atoms: _42  and  _43
REMARK   18  A    between atoms: _46  and  _47
REMARK   19  A    between atoms: _52  and  _54
REMARK   20  A    between atoms: _54  and  _55
REMARK   21  A    between atoms: _54  and  _57
REMARK   22  A    between atoms: _57  and  _58
REMARK   23  A    between atoms: _63  and  _65
REMARK   24  A    between atoms: _65  and  _66
REMARK   25  A    between atoms: _68  and  _70
REMARK   26  A    between atoms: _70  and  _71
REMARK   27  A    between atoms: _70  and  _73
REMARK   28  A    between atoms: _73  and  _74
REMARK   29  A    between atoms: _84  and  _86
REMARK   30  A    between atoms: _86  and  _87
REMARK   31  A    between atoms: _86  and  _89
REMARK   32  A    between atoms: _89  and  _90
REMARK   33  A    between atoms: _90  and  _91
REMARK   34  A    between atoms: _91  and  _92
REMARK   35  A    between atoms: _92  and  _93
REMARK   36  A    between atoms: _97  and  _99
REMARK   37  A    between atoms: _99  and  _100
REMARK   38  A    between atoms: _99  and  _102
REMARK   39  A    between atoms: _105  and  _107
REMARK   40  A    between atoms: _107  and  _108
REMARK   41  A    between atoms: _107  and  _110
REMARK   42  A    between atoms: _110  and  _111
REMARK   43  A    between atoms: _114  and  _116
REMARK   44  A    between atoms: _116  and  _117
REMARK   45  A    between atoms: _116  and  _119
REMARK   46  A    between atoms: _119  and  _120
REMARK   47  A    between atoms: _126  and  _128
REMARK   48  A    between atoms: _128  and  _129
REMARK   49  A    between atoms: _128  and  _131
REMARK   50  A    between atoms: _131  and  _132
REMARK   51  A    between atoms: _137  and  _139
REMARK   52  A    between atoms: _139  and  _140
REMARK   53  A    between atoms: _139  and  _142
REMARK   54  A    between atoms: _142  and  _143
REMARK   55  A    between atoms: _143  and  _144
REMARK   56  A    between atoms: _144  and  _145
REMARK   57  A    between atoms: _145  and  _146
REMARK   58  A    between atoms: _150  and  _152
REMARK   59  A    between atoms: _152  and  _153
REMARK   60  A    between atoms: _152  and  _155
REMARK   61  A    between atoms: _155  and  _156
REMARK   62  A    between atoms: _161  and  _162
REMARK   63  A    between atoms: _164  and  _166
REMARK   64  A    between atoms: _166  and  _167
REMARK   65  A    between atoms: _166  and  _169
REMARK   66  A    between atoms: _169  and  _170
REMARK   67  A    between atoms: _175  and  _177
REMARK   68  A    between atoms: _177  and  _178
REMARK   69  A    between atoms: _177  and  _180
REMARK   70  A    between atoms: _180  and  _181
REMARK   71  A    between atoms: _186  and  _188
REMARK   72  A    between atoms: _188  and  _189
REMARK   73  A    between atoms: _191  and  _193
REMARK   74  A    between atoms: _193  and  _194
REMARK   75  A    between atoms: _193  and  _196
REMARK   76  A    between atoms: _196  and  _197
REMARK   77  A    between atoms: _197  and  _198
REMARK   78  A    between atoms: _198  and  _199
REMARK   79  A    between atoms: _208  and  _210
REMARK   80  A    between atoms: _210  and  _211
REMARK   81  A    between atoms: _210  and  _213
REMARK   82  A    between atoms: _213  and  _214
REMARK   83  A    between atoms: _218  and  _219
REMARK   84  A    between atoms: _224  and  _226
REMARK   85  A    between atoms: _226  and  _227
REMARK   86  A    between atoms: _230  and  _232
REMARK   87  A    between atoms: _232  and  _233
REMARK   88  A    between atoms: _232  and  _235
REMARK   89  A    between atoms: _235  and  _236
REMARK   90  A    between atoms: _246  and  _248
REMARK   91  A    between atoms: _248  and  _249
REMARK   92  A    between atoms: _248  and  _251
REMARK   93  A    between atoms: _251  and  _252
REMARK   94  A    between atoms: _252  and  _253
REMARK   95  A    between atoms: _256  and  _258
REMARK   96  A    between atoms: _258  and  _259
REMARK   97  A    between atoms: _258  and  _261
REMARK   98  A    between atoms: _261  and  _262
REMARK   99  A    between atoms: _264  and  _266
REMARK  100  A    between atoms: _266  and  _267
REMARK  101  A    between atoms: _266  and  _269
REMARK  102  A    between atoms: _269  and  _270
REMARK  103  A    between atoms: _275  and  _277
REMARK  104  A    between atoms: _277  and  _278
REMARK  105  A    between atoms: _281  and  _283
REMARK  106  A    between atoms: _283  and  _284
REMARK  107  A    between atoms: _283  and  _286
REMARK  108  A    between atoms: _286  and  _287
REMARK  109  A    between atoms: _290  and  _292
REMARK  110  A    between atoms: _292  and  _293
REMARK  111  A    between atoms: _292  and  _295
REMARK  112  A    between atoms: _295  and  _296
REMARK  113  A    between atoms: _299  and  _301
REMARK  114  A    between atoms: _301  and  _302
REMARK  115  A    between atoms: _301  and  _304
REMARK  116  A    between atoms: _304  and  _305
REMARK  117  A    between atoms: _305  and  _306
REMARK  118  A    between atoms: _311  and  _313
REMARK  119  A    between atoms: _313  and  _314
REMARK  120  A    between atoms: _317  and  _319
REMARK  121  A    between atoms: _319  and  _320
REMARK  122  A    between atoms: _319  and  _322
REMARK  123  A    between atoms: _322  and  _323
REMARK  124  A    between atoms: _325  and  _327
REMARK  125  A    between atoms: _327  and  _328
REMARK  126  A    between atoms: _330  and  _332
REMARK  127  A    between atoms: _332  and  _333
REMARK  128  A    between atoms: _332  and  _335
REMARK  129  A    between atoms: _335  and  _336
REMARK  130  A    between atoms: _336  and  _337
REMARK  131  A    between atoms: _342  and  _344
REMARK  132  A    between atoms: _344  and  _345
REMARK  133  A    between atoms: _348  and  _349
REMARK  134  A    between atoms: _354  and  _356
REMARK  135  A    between atoms: _356  and  _357
REMARK  136  A    between atoms: _356  and  _359
REMARK  137  A    between atoms: _359  and  _360
REMARK  138  A    between atoms: _365  and  _366
REMARK  139  A    between atoms: _368  and  _370
REMARK  140  A    between atoms: _370  and  _371
REMARK  141  A    between atoms: _370  and  _373
REMARK  142  A    between atoms: _373  and  _374
REMARK  143  A    between atoms: _379  and  _380
REMARK  144  A    between atoms: _382  and  _384
REMARK  145  A    between atoms: _384  and  _385
REMARK  146  A    between atoms: _387  and  _389
REMARK  147  A    between atoms: _389  and  _390
REMARK  148  A    between atoms: _389  and  _392
REMARK  149  A    between atoms: _392  and  _393
REMARK  150  A    between atoms: _393  and  _394
REMARK  151  A    between atoms: _399  and  _401
REMARK  152  A    between atoms: _401  and  _402
REMARK  153  A    between atoms: _405  and  _407
REMARK  154  A    between atoms: _407  and  _408
REMARK  155  A    between atoms: _411  and  _413
REMARK  156  A    between atoms: _413  and  _414
REMARK  157  A    between atoms: _413  and  _416
REMARK  158  A    between atoms: _416  and  _417
REMARK  159  A    between atoms: _427  and  _429
REMARK  160  A    between atoms: _429  and  _430
REMARK  161  A    between atoms: _429  and  _432
REMARK  162  A    between atoms: _432  and  _433
REMARK  163  A    between atoms: _439  and  _441
REMARK  164  A    between atoms: _441  and  _442
REMARK  165  A    between atoms: _441  and  _444
REMARK  166  A    between atoms: _444  and  _445
REMARK  167  A    between atoms: _450  and  _451
REMARK  168  A    between atoms: _453  and  _455
REMARK  169  A    between atoms: _455  and  _456
REMARK  170  A    between atoms: _455  and  _458
REMARK  171  A    between atoms: _458  and  _459
REMARK  172  A    between atoms: _469  and  _471
REMARK  173  A    between atoms: _471  and  _472
REMARK  174  A    between atoms: _471  and  _474
REMARK  175  A    between atoms: _474  and  _475
REMARK  176  A    between atoms: _480  and  _481
REMARK  177  A    between atoms: _483  and  _485
REMARK  178  A    between atoms: _485  and  _486
REMARK  179  A    between atoms: _485  and  _488
REMARK  180  A    between atoms: _488  and  _489
REMARK  181  A    between atoms: _495  and  _497
REMARK  182  A    between atoms: _497  and  _498
REMARK  183  A    between atoms: _501  and  _503
REMARK  184  A    between atoms: _503  and  _504
REMARK  185  A    between atoms: _503  and  _506
REMARK  186  A    between atoms: _506  and  _507
REMARK  187  A    between atoms: _509  and  _511
REMARK  188  A    between atoms: _511  and  _512
REMARK  189  A    between atoms: _514  and  _516
REMARK  190  A    between atoms: _516  and  _517
REMARK  191  A    between atoms: _516  and  _519
REMARK  192  A    between atoms: _519  and  _520
REMARK  193  A    between atoms: _520  and  _521
REMARK  194  A    between atoms: _527  and  _528
REMARK  195  A    between atoms: _533  and  _535
REMARK  196  A    between atoms: _535  and  _536
REMARK  197  A    between atoms: _535  and  _538
REMARK  198  A    between atoms: _538  and  _539
REMARK  199  A    between atoms: _544  and  _545
REMARK  200  A    between atoms: _547  and  _549
REMARK  201  A    between atoms: _549  and  _550
REMARK  202  A    between atoms: _549  and  _552
REMARK  203  A    between atoms: _552  and  _553
REMARK  204  A    between atoms: _553  and  _554
REMARK  205  A    between atoms: _554  and  _555
REMARK  206  A    between atoms: _564  and  _566
REMARK  207  A    between atoms: _566  and  _567
REMARK  208  A    between atoms: _566  and  _569
REMARK  209  A    between atoms: _569  and  _570
REMARK  210  A    between atoms: _575  and  _576
REMARK  211  A    between atoms: _578  and  _580
REMARK  212  A    between atoms: _580  and  _581
REMARK  213  A    between atoms: _580  and  _583
REMARK  214  A    between atoms: _583  and  _584
REMARK  215  A    between atoms: _584  and  _585
REMARK  216  A    between atoms: _588  and  _590
REMARK  217  A    between atoms: _590  and  _591
REMARK  218  A    between atoms: _590  and  _593
REMARK  219  A    between atoms: _593  and  _594
REMARK  220  A    between atoms: _594  and  _595
REMARK  221  A    between atoms: _595  and  _596
REMARK                            x       y       z     vdW  Elec       q    Type
REMARK                         _______ _______ _______ _____ _____    ______ ____
ROOT
ATOM      1  O   HOH     1       2.998   9.723  -0.058  0.00  0.00    +0.000 OA
ENDROOT
TORSDOF 0
REMARK  Name = ../refined-set-2016/4zb8/4zb8_pocket.pdb
REMARK  221 active torsions:
REMARK  status: ('A' for Active; 'I' for Inactive)
REMARK    1  A    between atoms: _1  and  _3
REMARK    2  A    between atoms: _3  and  _4
REMARK    3  A    between atoms: _3  and  _6
REMARK    4  A    between atoms: _6  and  _7
REMARK    5  A    between atoms: _12  and  _13
REMARK    6  A    between atoms: _15  and  _17
REMARK    7  A    between atoms: _17  and  _18
REMARK    8  A    between atoms: _17  and  _20
REMARK    9  A    between atoms: _20  and  _21
REMARK   10  A    between atoms: _24  and  _26
REMARK   11  A    between atoms: _26  and  _27
REMARK   12  A    between atoms: _26  and  _29
REMARK   13  A    between atoms: _29  and  _30
REMARK   14  A    between atoms: _35  and  _37
REMARK   15  A    between atoms: _37  and  _38
REMARK   16  A    between atoms: _40  and  _42
REMARK   17  A    between atoms: _42  and  _43
REMARK   18  A    between atoms: _46  and  _47
REMARK   19  A    between atoms: _52  and  _54
REMARK   20  A    between atoms: _54  and  _55
REMARK   21  A    between atoms: _54  and  _57
REMARK   22  A    between atoms: _57  and  _58
REMARK   23  A    between atoms: _63  and  _65
REMARK   24  A    between atoms: _65  and  _66
REMARK   25  A    between atoms: _68  and  _70
REMARK   26  A    between atoms: _70  and  _71
REMARK   27  A    between atoms: _70  and  _73
REMARK   28  A    between atoms: _73  and  _74
REMARK   29  A    between atoms: _84  and  _86
REMARK   30  A    between atoms: _86  and  _87
REMARK   31  A    between atoms: _86  and  _89
REMARK   32  A    between atoms: _89  and  _90
REMARK   33  A    between atoms: _90  and  _91
REMARK   34  A    between atoms: _91  and  _92
REMARK   35  A    between atoms: _92  and  _93
REMARK   36  A    between atoms: _97  and  _99
REMARK   37  A    between atoms: _99  and  _100
REMARK   38  A    between atoms: _99  and  _102
REMARK   39  A    between atoms: _105  and  _107
REMARK   40  A    between atoms: _107  and  _108
REMARK   41  A    between atoms: _107  and  _110
REMARK   42  A    between atoms: _110  and  _111
REMARK   43  A    between atoms: _114  and  _116
REMARK   44  A    between atoms: _116  and  _117
REMARK   45  A    between atoms: _116  and  _119
REMARK   46  A    between atoms: _119  and  _120
REMARK   47  A    between atoms: _126  and  _128
REMARK   48  A    between atoms: _128  and  _129
REMARK   49  A    between atoms: _128  and  _131
REMARK   50  A    between atoms: _131  and  _132
REMARK   51  A    between atoms: _137  and  _139
REMARK   52  A    between atoms: _139  and  _140
REMARK   53  A    between atoms: _139  and  _142
REMARK   54  A    between atoms: _142  and  _143
REMARK   55  A    between atoms: _143  and  _144
REMARK   56  A    between atoms: _144  and  _145
REMARK   57  A    between atoms: _145  and  _146
REMARK   58  A    between atoms: _150  and  _152
REMARK   59  A    between atoms: _152  and  _153
REMARK   60  A    between atoms: _152  and  _155
REMARK   61  A    between atoms: _155  and  _156
REMARK   62  A    between atoms: _161  and  _162
REMARK   63  A    between atoms: _164  and  _166
REMARK   64  A    between atoms: _166  and  _167
REMARK   65  A    between atoms: _166  and  _169
REMARK   66  A    between atoms: _169  and  _170
REMARK   67  A    between atoms: _175  and  _177
REMARK   68  A    between atoms: _177  and  _178
REMARK   69  A    between atoms: _177  and  _180
REMARK   70  A    between atoms: _180  and  _181
REMARK   71  A    between atoms: _186  and  _188
REMARK   72  A    between atoms: _188  and  _189
REMARK   73  A    between atoms: _191  and  _193
REMARK   74  A    between atoms: _193  and  _194
REMARK   75  A    between atoms: _193  and  _196
REMARK   76  A    between atoms: _196  and  _197
REMARK   77  A    between atoms: _197  and  _198
REMARK   78  A    between atoms: _198  and  _199
REMARK   79  A    between atoms: _208  and  _210
REMARK   80  A    between atoms: _210  and  _211
REMARK   81  A    between atoms: _210  and  _213
REMARK   82  A    between atoms: _213  and  _214
REMARK   83  A    between atoms: _218  and  _219
REMARK   84  A    between atoms: _224  and  _226
REMARK   85  A    between atoms: _226  and  _227
REMARK   86  A    between atoms: _230  and  _232
REMARK   87  A    between atoms: _232  and  _233
REMARK   88  A    between atoms: _232  and  _235
REMARK   89  A    between atoms: _235  and  _236
REMARK   90  A    between atoms: _246  and  _248
REMARK   91  A    between atoms: _248  and  _249
REMARK   92  A    between atoms: _248  and  _251
REMARK   93  A    between atoms: _251  and  _252
REMARK   94  A    between atoms: _252  and  _253
REMARK   95  A    between atoms: _256  and  _258
REMARK   96  A    between atoms: _258  and  _259
REMARK   97  A    between atoms: _258  and  _261
REMARK   98  A    between atoms: _261  and  _262
REMARK   99  A    between atoms: _264  and  _266
REMARK  100  A    between atoms: _266  and  _267
REMARK  101  A    between atoms: _266  and  _269
REMARK  102  A    between atoms: _269  and  _270
REMARK  103  A    between atoms: _275  and  _277
REMARK  104  A    between atoms: _277  and  _278
REMARK  105  A    between atoms: _281  and  _283
REMARK  106  A    between atoms: _283  and  _284
REMARK  107  A    between atoms: _283  and  _286
REMARK  108  A    between atoms: _286  and  _287
REMARK  109  A    between atoms: _290  and  _292
REMARK  110  A    between atoms: _292  and  _293
REMARK  111  A    between atoms: _292  and  _295
REMARK  112  A    between atoms: _295  and  _296
REMARK  113  A    between atoms: _299  and  _301
REMARK  114  A    between atoms: _301  and  _302
REMARK  115  A    between atoms: _301  and  _304
REMARK  116  A    between atoms: _304  and  _305
REMARK  117  A    between atoms: _305  and  _306
REMARK  118  A    between atoms: _311  and  _313
REMARK  119  A    between atoms: _313  and  _314
REMARK  120  A    between atoms: _317  and  _319
REMARK  121  A    between atoms: _319  and  _320
REMARK  122  A    between atoms: _319  and  _322
REMARK  123  A    between atoms: _322  and  _323
REMARK  124  A    between atoms: _325  and  _327
REMARK  125  A    between atoms: _327  and  _328
REMARK  126  A    between atoms: _330  and  _332
REMARK  127  A    between atoms: _332  and  _333
REMARK  128  A    between atoms: _332  and  _335
REMARK  129  A    between atoms: _335  and  _336
REMARK  130  A    between atoms: _336  and  _337
REMARK  131  A    between atoms: _342  and  _344
REMARK  132  A    between atoms: _344  and  _345
REMARK  133  A    between atoms: _348  and  _349
REMARK  134  A    between atoms: _354  and  _356
REMARK  135  A    between atoms: _356  and  _357
REMARK  136  A    between atoms: _356  and  _359
REMARK  137  A    between atoms: _359  and  _360
REMARK  138  A    between atoms: _365  and  _366
REMARK  139  A    between atoms: _368  and  _370
REMARK  140  A    between atoms: _370  and  _371
REMARK  141  A    between atoms: _370  and  _373
REMARK  142  A    between atoms: _373  and  _374
REMARK  143  A    between atoms: _379  and  _380
REMARK  144  A    between atoms: _382  and  _384
REMARK  145  A    between atoms: _384  and  _385
REMARK  146  A    between atoms: _387  and  _389
REMARK  147  A    between atoms: _389  and  _390
REMARK  148  A    between atoms: _389  and  _392
REMARK  149  A    between atoms: _392  and  _393
REMARK  150  A    between atoms: _393  and  _394
REMARK  151  A    between atoms: _399  and  _401
REMARK  152  A    between atoms: _401  and  _402
REMARK  153  A    between atoms: _405  and  _407
REMARK  154  A    between atoms: _407  and  _408
REMARK  155  A    between atoms: _411  and  _413
REMARK  156  A    between atoms: _413  and  _414
REMARK  157  A    between atoms: _413  and  _416
REMARK  158  A    between atoms: _416  and  _417
REMARK  159  A    between atoms: _427  and  _429
REMARK  160  A    between atoms: _429  and  _430
REMARK  161  A    between atoms: _429  and  _432
REMARK  162  A    between atoms: _432  and  _433
REMARK  163  A    between atoms: _439  and  _441
REMARK  164  A    between atoms: _441  and  _442
REMARK  165  A    between atoms: _441  and  _444
REMARK  166  A    between atoms: _444  and  _445
REMARK  167  A    between atoms: _450  and  _451
REMARK  168  A    between atoms: _453  and  _455
REMARK  169  A    between atoms: _455  and  _456
REMARK  170  A    between atoms: _455  and  _458
REMARK  171  A    between atoms: _458  and  _459
REMARK  172  A    between atoms: _469  and  _471
REMARK  173  A    between atoms: _471  and  _472
REMARK  174  A    between atoms: _471  and  _474
REMARK  175  A    between atoms: _474  and  _475
REMARK  176  A    between atoms: _480  and  _481
REMARK  177  A    between atoms: _483  and  _485
REMARK  178  A    between atoms: _485  and  _486
REMARK  179  A    between atoms: _485  and  _488
REMARK  180  A    between atoms: _488  and  _489
REMARK  181  A    between atoms: _495  and  _497
REMARK  182  A    between atoms: _497  and  _498
REMARK  183  A    between atoms: _501  and  _503
REMARK  184  A    between atoms: _503  and  _504
REMARK  185  A    between atoms: _503  and  _506
REMARK  186  A    between atoms: _506  and  _507
REMARK  187  A    between atoms: _509  and  _511
REMARK  188  A    between atoms: _511  and  _512
REMARK  189  A    between atoms: _514  and  _516
REMARK  190  A    between atoms: _516  and  _517
REMARK  191  A    between atoms: _516  and  _519
REMARK  192  A    between atoms: _519  and  _520
REMARK  193  A    between atoms: _520  and  _521
REMARK  194  A    between atoms: _527  and  _528
REMARK  195  A    between atoms: _533  and  _535
REMARK  196  A    between atoms: _535  and  _536
REMARK  197  A    between atoms: _535  and  _538
REMARK  198  A    between atoms: _538  and  _539
REMARK  199  A    between atoms: _544  and  _545
REMARK  200  A    between atoms: _547  and  _549
REMARK  201  A    between atoms: _549  and  _550
REMARK  202  A    between atoms: _549  and  _552
REMARK  203  A    between atoms: _552  and  _553
REMARK  204  A    between atoms: _553  and  _554
REMARK  205  A    between atoms: _554  and  _555
REMARK  206  A    between atoms: _564  and  _566
REMARK  207  A    between atoms: _566  and  _567
REMARK  208  A    between atoms: _566  and  _569
REMARK  209  A    between atoms: _569  and  _570
REMARK  210  A    between atoms: _575  and  _576
REMARK  211  A    between atoms: _578  and  _580
REMARK  212  A    between atoms: _580  and  _581
REMARK  213  A    between atoms: _580  and  _583
REMARK  214  A    between atoms: _583  and  _584
REMARK  215  A    between atoms: _584  and  _585
REMARK  216  A    between atoms: _588  and  _590
REMARK  217  A    between atoms: _590  and  _591
REMARK  218  A    between atoms: _590  and  _593
REMARK  219  A    between atoms: _593  and  _594
REMARK  220  A    between atoms: _594  and  _595
REMARK  221  A    between atoms: _595  and  _596
REMARK                            x       y       z     vdW  Elec       q    Type
REMARK                         _______ _______ _______ _____ _____    ______ ____
ROOT
ATOM      1  O   HOH     1      -1.324  10.429  -2.399  0.00  0.00    +0.000 OA
ENDROOT
TORSDOF 0
REMARK  Name = ../refined-set-2016/4zb8/4zb8_pocket.pdb
REMARK  221 active torsions:
REMARK  status: ('A' for Active; 'I' for Inactive)
REMARK    1  A    between atoms: _1  and  _3
REMARK    2  A    between atoms: _3  and  _4
REMARK    3  A    between atoms: _3  and  _6
REMARK    4  A    between atoms: _6  and  _7
REMARK    5  A    between atoms: _12  and  _13
REMARK    6  A    between atoms: _15  and  _17
REMARK    7  A    between atoms: _17  and  _18
REMARK    8  A    between atoms: _17  and  _20
REMARK    9  A    between atoms: _20  and  _21
REMARK   10  A    between atoms: _24  and  _26
REMARK   11  A    between atoms: _26  and  _27
REMARK   12  A    between atoms: _26  and  _29
REMARK   13  A    between atoms: _29  and  _30
REMARK   14  A    between atoms: _35  and  _37
REMARK   15  A    between atoms: _37  and  _38
REMARK   16  A    between atoms: _40  and  _42
REMARK   17  A    between atoms: _42  and  _43
REMARK   18  A    between atoms: _46  and  _47
REMARK   19  A    between atoms: _52  and  _54
REMARK   20  A    between atoms: _54  and  _55
REMARK   21  A    between atoms: _54  and  _57
REMARK   22  A    between atoms: _57  and  _58
REMARK   23  A    between atoms: _63  and  _65
REMARK   24  A    between atoms: _65  and  _66
REMARK   25  A    between atoms: _68  and  _70
REMARK   26  A    between atoms: _70  and  _71
REMARK   27  A    between atoms: _70  and  _73
REMARK   28  A    between atoms: _73  and  _74
REMARK   29  A    between atoms: _84  and  _86
REMARK   30  A    between atoms: _86  and  _87
REMARK   31  A    between atoms: _86  and  _89
REMARK   32  A    between atoms: _89  and  _90
REMARK   33  A    between atoms: _90  and  _91
REMARK   34  A    between atoms: _91  and  _92
REMARK   35  A    between atoms: _92  and  _93
REMARK   36  A    between atoms: _97  and  _99
REMARK   37  A    between atoms: _99  and  _100
REMARK   38  A    between atoms: _99  and  _102
REMARK   39  A    between atoms: _105  and  _107
REMARK   40  A    between atoms: _107  and  _108
REMARK   41  A    between atoms: _107  and  _110
REMARK   42  A    between atoms: _110  and  _111
REMARK   43  A    between atoms: _114  and  _116
REMARK   44  A    between atoms: _116  and  _117
REMARK   45  A    between atoms: _116  and  _119
REMARK   46  A    between atoms: _119  and  _120
REMARK   47  A    between atoms: _126  and  _128
REMARK   48  A    between atoms: _128  and  _129
REMARK   49  A    between atoms: _128  and  _131
REMARK   50  A    between atoms: _131  and  _132
REMARK   51  A    between atoms: _137  and  _139
REMARK   52  A    between atoms: _139  and  _140
REMARK   53  A    between atoms: _139  and  _142
REMARK   54  A    between atoms: _142  and  _143
REMARK   55  A    between atoms: _143  and  _144
REMARK   56  A    between atoms: _144  and  _145
REMARK   57  A    between atoms: _145  and  _146
REMARK   58  A    between atoms: _150  and  _152
REMARK   59  A    between atoms: _152  and  _153
REMARK   60  A    between atoms: _152  and  _155
REMARK   61  A    between atoms: _155  and  _156
REMARK   62  A    between atoms: _161  and  _162
REMARK   63  A    between atoms: _164  and  _166
REMARK   64  A    between atoms: _166  and  _167
REMARK   65  A    between atoms: _166  and  _169
REMARK   66  A    between atoms: _169  and  _170
REMARK   67  A    between atoms: _175  and  _177
REMARK   68  A    between atoms: _177  and  _178
REMARK   69  A    between atoms: _177  and  _180
REMARK   70  A    between atoms: _180  and  _181
REMARK   71  A    between atoms: _186  and  _188
REMARK   72  A    between atoms: _188  and  _189
REMARK   73  A    between atoms: _191  and  _193
REMARK   74  A    between atoms: _193  and  _194
REMARK   75  A    between atoms: _193  and  _196
REMARK   76  A    between atoms: _196  and  _197
REMARK   77  A    between atoms: _197  and  _198
REMARK   78  A    between atoms: _198  and  _199
REMARK   79  A    between atoms: _208  and  _210
REMARK   80  A    between atoms: _210  and  _211
REMARK   81  A    between atoms: _210  and  _213
REMARK   82  A    between atoms: _213  and  _214
REMARK   83  A    between atoms: _218  and  _219
REMARK   84  A    between atoms: _224  and  _226
REMARK   85  A    between atoms: _226  and  _227
REMARK   86  A    between atoms: _230  and  _232
REMARK   87  A    between atoms: _232  and  _233
REMARK   88  A    between atoms: _232  and  _235
REMARK   89  A    between atoms: _235  and  _236
REMARK   90  A    between atoms: _246  and  _248
REMARK   91  A    between atoms: _248  and  _249
REMARK   92  A    between atoms: _248  and  _251
REMARK   93  A    between atoms: _251  and  _252
REMARK   94  A    between atoms: _252  and  _253
REMARK   95  A    between atoms: _256  and  _258
REMARK   96  A    between atoms: _258  and  _259
REMARK   97  A    between atoms: _258  and  _261
REMARK   98  A    between atoms: _261  and  _262
REMARK   99  A    between atoms: _264  and  _266
REMARK  100  A    between atoms: _266  and  _267
REMARK  101  A    between atoms: _266  and  _269
REMARK  102  A    between atoms: _269  and  _270
REMARK  103  A    between atoms: _275  and  _277
REMARK  104  A    between atoms: _277  and  _278
REMARK  105  A    between atoms: _281  and  _283
REMARK  106  A    between atoms: _283  and  _284
REMARK  107  A    between atoms: _283  and  _286
REMARK  108  A    between atoms: _286  and  _287
REMARK  109  A    between atoms: _290  and  _292
REMARK  110  A    between atoms: _292  and  _293
REMARK  111  A    between atoms: _292  and  _295
REMARK  112  A    between atoms: _295  and  _296
REMARK  113  A    between atoms: _299  and  _301
REMARK  114  A    between atoms: _301  and  _302
REMARK  115  A    between atoms: _301  and  _304
REMARK  116  A    between atoms: _304  and  _305
REMARK  117  A    between atoms: _305  and  _306
REMARK  118  A    between atoms: _311  and  _313
REMARK  119  A    between atoms: _313  and  _314
REMARK  120  A    between atoms: _317  and  _319
REMARK  121  A    between atoms: _319  and  _320
REMARK  122  A    between atoms: _319  and  _322
REMARK  123  A    between atoms: _322  and  _323
REMARK  124  A    between atoms: _325  and  _327
REMARK  125  A    between atoms: _327  and  _328
REMARK  126  A    between atoms: _330  and  _332
REMARK  127  A    between atoms: _332  and  _333
REMARK  128  A    between atoms: _332  and  _335
REMARK  129  A    between atoms: _335  and  _336
REMARK  130  A    between atoms: _336  and  _337
REMARK  131  A    between atoms: _342  and  _344
REMARK  132  A    between atoms: _344  and  _345
REMARK  133  A    between atoms: _348  and  _349
REMARK  134  A    between atoms: _354  and  _356
REMARK  135  A    between atoms: _356  and  _357
REMARK  136  A    between atoms: _356  and  _359
REMARK  137  A    between atoms: _359  and  _360
REMARK  138  A    between atoms: _365  and  _366
REMARK  139  A    between atoms: _368  and  _370
REMARK  140  A    between atoms: _370  and  _371
REMARK  141  A    between atoms: _370  and  _373
REMARK  142  A    between atoms: _373  and  _374
REMARK  143  A    between atoms: _379  and  _380
REMARK  144  A    between atoms: _382  and  _384
REMARK  145  A    between atoms: _384  and  _385
REMARK  146  A    between atoms: _387  and  _389
REMARK  147  A    between atoms: _389  and  _390
REMARK  148  A    between atoms: _389  and  _392
REMARK  149  A    between atoms: _392  and  _393
REMARK  150  A    between atoms: _393  and  _394
REMARK  151  A    between atoms: _399  and  _401
REMARK  152  A    between atoms: _401  and  _402
REMARK  153  A    between atoms: _405  and  _407
REMARK  154  A    between atoms: _407  and  _408
REMARK  155  A    between atoms: _411  and  _413
REMARK  156  A    between atoms: _413  and  _414
REMARK  157  A    between atoms: _413  and  _416
REMARK  158  A    between atoms: _416  and  _417
REMARK  159  A    between atoms: _427  and  _429
REMARK  160  A    between atoms: _429  and  _430
REMARK  161  A    between atoms: _429  and  _432
REMARK  162  A    between atoms: _432  and  _433
REMARK  163  A    between atoms: _439  and  _441
REMARK  164  A    between atoms: _441  and  _442
REMARK  165  A    between atoms: _441  and  _444
REMARK  166  A    between atoms: _444  and  _445
REMARK  167  A    between atoms: _450  and  _451
REMARK  168  A    between atoms: _453  and  _455
REMARK  169  A    between atoms: _455  and  _456
REMARK  170  A    between atoms: _455  and  _458
REMARK  171  A    between atoms: _458  and  _459
REMARK  172  A    between atoms: _469  and  _471
REMARK  173  A    between atoms: _471  and  _472
REMARK  174  A    between atoms: _471  and  _474
REMARK  175  A    between atoms: _474  and  _475
REMARK  176  A    between atoms: _480  and  _481
REMARK  177  A    between atoms: _483  and  _485
REMARK  178  A    between atoms: _485  and  _486
REMARK  179  A    between atoms: _485  and  _488
REMARK  180  A    between atoms: _488  and  _489
REMARK  181  A    between atoms: _495  and  _497
REMARK  182  A    between atoms: _497  and  _498
REMARK  183  A    between atoms: _501  and  _503
REMARK  184  A    between atoms: _503  and  _504
REMARK  185  A    between atoms: _503  and  _506
REMARK  186  A    between atoms: _506  and  _507
REMARK  187  A    between atoms: _509  and  _511
REMARK  188  A    between atoms: _511  and  _512
REMARK  189  A    between atoms: _514  and  _516
REMARK  190  A    between atoms: _516  and  _517
REMARK  191  A    between atoms: _516  and  _519
REMARK  192  A    between atoms: _519  and  _520
REMARK  193  A    between atoms: _520  and  _521
REMARK  194  A    between atoms: _527  and  _528
REMARK  195  A    between atoms: _533  and  _535
REMARK  196  A    between atoms: _535  and  _536
REMARK  197  A    between atoms: _535  and  _538
REMARK  198  A    between atoms: _538  and  _539
REMARK  199  A    between atoms: _544  and  _545
REMARK  200  A    between atoms: _547  and  _549
REMARK  201  A    between atoms: _549  and  _550
REMARK  202  A    between atoms: _549  and  _552
REMARK  203  A    between atoms: _552  and  _553
REMARK  204  A    between atoms: _553  and  _554
REMARK  205  A    between atoms: _554  and  _555
REMARK  206  A    between atoms: _564  and  _566
REMARK  207  A    between atoms: _566  and  _567
REMARK  208  A    between atoms: _566  and  _569
REMARK  209  A    between atoms: _569  and  _570
REMARK  210  A    between atoms: _575  and  _576
REMARK  211  A    between atoms: _578  and  _580
REMARK  212  A    between atoms: _580  and  _581
REMARK  213  A    between atoms: _580  and  _583
REMARK  214  A    between atoms: _583  and  _584
REMARK  215  A    between atoms: _584  and  _585
REMARK  216  A    between atoms: _588  and  _590
REMARK  217  A    between atoms: _590  and  _591
REMARK  218  A    between atoms: _590  and  _593
REMARK  219  A    between atoms: _593  and  _594
REMARK  220  A    between atoms: _594  and  _595
REMARK  221  A    between atoms: _595  and  _596
REMARK                            x       y       z     vdW  Elec       q    Type
REMARK                         _______ _______ _______ _____ _____    ______ ____
ROOT
ATOM      1  O   HOH     1       5.089   8.982  -1.869  0.00  0.00    +0.000 OA
ENDROOT
TORSDOF 0
REMARK  Name = ../refined-set-2016/4zb8/4zb8_pocket.pdb
REMARK  221 active torsions:
REMARK  status: ('A' for Active; 'I' for Inactive)
REMARK    1  A    between atoms: _1  and  _3
REMARK    2  A    between atoms: _3  and  _4
REMARK    3  A    between atoms: _3  and  _6
REMARK    4  A    between atoms: _6  and  _7
REMARK    5  A    between atoms: _12  and  _13
REMARK    6  A    between atoms: _15  and  _17
REMARK    7  A    between atoms: _17  and  _18
REMARK    8  A    between atoms: _17  and  _20
REMARK    9  A    between atoms: _20  and  _21
REMARK   10  A    between atoms: _24  and  _26
REMARK   11  A    between atoms: _26  and  _27
REMARK   12  A    between atoms: _26  and  _29
REMARK   13  A    between atoms: _29  and  _30
REMARK   14  A    between atoms: _35  and  _37
REMARK   15  A    between atoms: _37  and  _38
REMARK   16  A    between atoms: _40  and  _42
REMARK   17  A    between atoms: _42  and  _43
REMARK   18  A    between atoms: _46  and  _47
REMARK   19  A    between atoms: _52  and  _54
REMARK   20  A    between atoms: _54  and  _55
REMARK   21  A    between atoms: _54  and  _57
REMARK   22  A    between atoms: _57  and  _58
REMARK   23  A    between atoms: _63  and  _65
REMARK   24  A    between atoms: _65  and  _66
REMARK   25  A    between atoms: _68  and  _70
REMARK   26  A    between atoms: _70  and  _71
REMARK   27  A    between atoms: _70  and  _73
REMARK   28  A    between atoms: _73  and  _74
REMARK   29  A    between atoms: _84  and  _86
REMARK   30  A    between atoms: _86  and  _87
REMARK   31  A    between atoms: _86  and  _89
REMARK   32  A    between atoms: _89  and  _90
REMARK   33  A    between atoms: _90  and  _91
REMARK   34  A    between atoms: _91  and  _92
REMARK   35  A    between atoms: _92  and  _93
REMARK   36  A    between atoms: _97  and  _99
REMARK   37  A    between atoms: _99  and  _100
REMARK   38  A    between atoms: _99  and  _102
REMARK   39  A    between atoms: _105  and  _107
REMARK   40  A    between atoms: _107  and  _108
REMARK   41  A    between atoms: _107  and  _110
REMARK   42  A    between atoms: _110  and  _111
REMARK   43  A    between atoms: _114  and  _116
REMARK   44  A    between atoms: _116  and  _117
REMARK   45  A    between atoms: _116  and  _119
REMARK   46  A    between atoms: _119  and  _120
REMARK   47  A    between atoms: _126  and  _128
REMARK   48  A    between atoms: _128  and  _129
REMARK   49  A    between atoms: _128  and  _131
REMARK   50  A    between atoms: _131  and  _132
REMARK   51  A    between atoms: _137  and  _139
REMARK   52  A    between atoms: _139  and  _140
REMARK   53  A    between atoms: _139  and  _142
REMARK   54  A    between atoms: _142  and  _143
REMARK   55  A    between atoms: _143  and  _144
REMARK   56  A    between atoms: _144  and  _145
REMARK   57  A    between atoms: _145  and  _146
REMARK   58  A    between atoms: _150  and  _152
REMARK   59  A    between atoms: _152  and  _153
REMARK   60  A    between atoms: _152  and  _155
REMARK   61  A    between atoms: _155  and  _156
REMARK   62  A    between atoms: _161  and  _162
REMARK   63  A    between atoms: _164  and  _166
REMARK   64  A    between atoms: _166  and  _167
REMARK   65  A    between atoms: _166  and  _169
REMARK   66  A    between atoms: _169  and  _170
REMARK   67  A    between atoms: _175  and  _177
REMARK   68  A    between atoms: _177  and  _178
REMARK   69  A    between atoms: _177  and  _180
REMARK   70  A    between atoms: _180  and  _181
REMARK   71  A    between atoms: _186  and  _188
REMARK   72  A    between atoms: _188  and  _189
REMARK   73  A    between atoms: _191  and  _193
REMARK   74  A    between atoms: _193  and  _194
REMARK   75  A    between atoms: _193  and  _196
REMARK   76  A    between atoms: _196  and  _197
REMARK   77  A    between atoms: _197  and  _198
REMARK   78  A    between atoms: _198  and  _199
REMARK   79  A    between atoms: _208  and  _210
REMARK   80  A    between atoms: _210  and  _211
REMARK   81  A    between atoms: _210  and  _213
REMARK   82  A    between atoms: _213  and  _214
REMARK   83  A    between atoms: _218  and  _219
REMARK   84  A    between atoms: _224  and  _226
REMARK   85  A    between atoms: _226  and  _227
REMARK   86  A    between atoms: _230  and  _232
REMARK   87  A    between atoms: _232  and  _233
REMARK   88  A    between atoms: _232  and  _235
REMARK   89  A    between atoms: _235  and  _236
REMARK   90  A    between atoms: _246  and  _248
REMARK   91  A    between atoms: _248  and  _249
REMARK   92  A    between atoms: _248  and  _251
REMARK   93  A    between atoms: _251  and  _252
REMARK   94  A    between atoms: _252  and  _253
REMARK   95  A    between atoms: _256  and  _258
REMARK   96  A    between atoms: _258  and  _259
REMARK   97  A    between atoms: _258  and  _261
REMARK   98  A    between atoms: _261  and  _262
REMARK   99  A    between atoms: _264  and  _266
REMARK  100  A    between atoms: _266  and  _267
REMARK  101  A    between atoms: _266  and  _269
REMARK  102  A    between atoms: _269  and  _270
REMARK  103  A    between atoms: _275  and  _277
REMARK  104  A    between atoms: _277  and  _278
REMARK  105  A    between atoms: _281  and  _283
REMARK  106  A    between atoms: _283  and  _284
REMARK  107  A    between atoms: _283  and  _286
REMARK  108  A    between atoms: _286  and  _287
REMARK  109  A    between atoms: _290  and  _292
REMARK  110  A    between atoms: _292  and  _293
REMARK  111  A    between atoms: _292  and  _295
REMARK  112  A    between atoms: _295  and  _296
REMARK  113  A    between atoms: _299  and  _301
REMARK  114  A    between atoms: _301  and  _302
REMARK  115  A    between atoms: _301  and  _304
REMARK  116  A    between atoms: _304  and  _305
REMARK  117  A    between atoms: _305  and  _306
REMARK  118  A    between atoms: _311  and  _313
REMARK  119  A    between atoms: _313  and  _314
REMARK  120  A    between atoms: _317  and  _319
REMARK  121  A    between atoms: _319  and  _320
REMARK  122  A    between atoms: _319  and  _322
REMARK  123  A    between atoms: _322  and  _323
REMARK  124  A    between atoms: _325  and  _327
REMARK  125  A    between atoms: _327  and  _328
REMARK  126  A    between atoms: _330  and  _332
REMARK  127  A    between atoms: _332  and  _333
REMARK  128  A    between atoms: _332  and  _335
REMARK  129  A    between atoms: _335  and  _336
REMARK  130  A    between atoms: _336  and  _337
REMARK  131  A    between atoms: _342  and  _344
REMARK  132  A    between atoms: _344  and  _345
REMARK  133  A    between atoms: _348  and  _349
REMARK  134  A    between atoms: _354  and  _356
REMARK  135  A    between atoms: _356  and  _357
REMARK  136  A    between atoms: _356  and  _359
REMARK  137  A    between atoms: _359  and  _360
REMARK  138  A    between atoms: _365  and  _366
REMARK  139  A    between atoms: _368  and  _370
REMARK  140  A    between atoms: _370  and  _371
REMARK  141  A    between atoms: _370  and  _373
REMARK  142  A    between atoms: _373  and  _374
REMARK  143  A    between atoms: _379  and  _380
REMARK  144  A    between atoms: _382  and  _384
REMARK  145  A    between atoms: _384  and  _385
REMARK  146  A    between atoms: _387  and  _389
REMARK  147  A    between atoms: _389  and  _390
REMARK  148  A    between atoms: _389  and  _392
REMARK  149  A    between atoms: _392  and  _393
REMARK  150  A    between atoms: _393  and  _394
REMARK  151  A    between atoms: _399  and  _401
REMARK  152  A    between atoms: _401  and  _402
REMARK  153  A    between atoms: _405  and  _407
REMARK  154  A    between atoms: _407  and  _408
REMARK  155  A    between atoms: _411  and  _413
REMARK  156  A    between atoms: _413  and  _414
REMARK  157  A    between atoms: _413  and  _416
REMARK  158  A    between atoms: _416  and  _417
REMARK  159  A    between atoms: _427  and  _429
REMARK  160  A    between atoms: _429  and  _430
REMARK  161  A    between atoms: _429  and  _432
REMARK  162  A    between atoms: _432  and  _433
REMARK  163  A    between atoms: _439  and  _441
REMARK  164  A    between atoms: _441  and  _442
REMARK  165  A    between atoms: _441  and  _444
REMARK  166  A    between atoms: _444  and  _445
REMARK  167  A    between atoms: _450  and  _451
REMARK  168  A    between atoms: _453  and  _455
REMARK  169  A    between atoms: _455  and  _456
REMARK  170  A    between atoms: _455  and  _458
REMARK  171  A    between atoms: _458  and  _459
REMARK  172  A    between atoms: _469  and  _471
REMARK  173  A    between atoms: _471  and  _472
REMARK  174  A    between atoms: _471  and  _474
REMARK  175  A    between atoms: _474  and  _475
REMARK  176  A    between atoms: _480  and  _481
REMARK  177  A    between atoms: _483  and  _485
REMARK  178  A    between atoms: _485  and  _486
REMARK  179  A    between atoms: _485  and  _488
REMARK  180  A    between atoms: _488  and  _489
REMARK  181  A    between atoms: _495  and  _497
REMARK  182  A    between atoms: _497  and  _498
REMARK  183  A    between atoms: _501  and  _503
REMARK  184  A    between atoms: _503  and  _504
REMARK  185  A    between atoms: _503  and  _506
REMARK  186  A    between atoms: _506  and  _507
REMARK  187  A    between atoms: _509  and  _511
REMARK  188  A    between atoms: _511  and  _512
REMARK  189  A    between atoms: _514  and  _516
REMARK  190  A    between atoms: _516  and  _517
REMARK  191  A    between atoms: _516  and  _519
REMARK  192  A    between atoms: _519  and  _520
REMARK  193  A    between atoms: _520  and  _521
REMARK  194  A    between atoms: _527  and  _528
REMARK  195  A    between atoms: _533  and  _535
REMARK  196  A    between atoms: _535  and  _536
REMARK  197  A    between atoms: _535  and  _538
REMARK  198  A    between atoms: _538  and  _539
REMARK  199  A    between atoms: _544  and  _545
REMARK  200  A    between atoms: _547  and  _549
REMARK  201  A    between atoms: _549  and  _550
REMARK  202  A    between atoms: _549  and  _552
REMARK  203  A    between atoms: _552  and  _553
REMARK  204  A    between atoms: _553  and  _554
REMARK  205  A    between atoms: _554  and  _555
REMARK  206  A    between atoms: _564  and  _566
REMARK  207  A    between atoms: _566  and  _567
REMARK  208  A    between atoms: _566  and  _569
REMARK  209  A    between atoms: _569  and  _570
REMARK  210  A    between atoms: _575  and  _576
REMARK  211  A    between atoms: _578  and  _580
REMARK  212  A    between atoms: _580  and  _581
REMARK  213  A    between atoms: _580  and  _583
REMARK  214  A    between atoms: _583  and  _584
REMARK  215  A    between atoms: _584  and  _585
REMARK  216  A    between atoms: _588  and  _590
REMARK  217  A    between atoms: _590  and  _591
REMARK  218  A    between atoms: _590  and  _593
REMARK  219  A    between atoms: _593  and  _594
REMARK  220  A    between atoms: _594  and  _595
REMARK  221  A    between atoms: _595  and  _596
REMARK                            x       y       z     vdW  Elec       q    Type
REMARK                         _______ _______ _______ _____ _____    ______ ____
ROOT
ATOM      1  O   HOH     1       0.811  14.132   0.535  0.00  0.00    +0.000 OA
ENDROOT
TORSDOF 0
