REMARK  Name = ../refined-set-2016/3ioc/3ioc_pocket.pdb
REMARK  221 active torsions:
REMARK  status: ('A' for Active; 'I' for Inactive)
REMARK    1  A    between atoms: _1  and  _3
REMARK    2  A    between atoms: _3  and  _4
REMARK    3  A    between atoms: _3  and  _6
REMARK    4  A    between atoms: _10  and  _11
REMARK    5  A    between atoms: _16  and  _18
REMARK    6  A    between atoms: _18  and  _19
REMARK    7  A    between atoms: _18  and  _21
REMARK    8  A    between atoms: _21  and  _22
REMARK    9  A    between atoms: _25  and  _27
REMARK   10  A    between atoms: _27  and  _28
REMARK   11  A    between atoms: _27  and  _30
REMARK   12  A    between atoms: _30  and  _31
REMARK   13  A    between atoms: _31  and  _32
REMARK   14  A    between atoms: _34  and  _36
REMARK   15  A    between atoms: _36  and  _37
REMARK   16  A    between atoms: _39  and  _41
REMARK   17  A    between atoms: _41  and  _42
REMARK   18  A    between atoms: _45  and  _47
REMARK   19  A    between atoms: _47  and  _48
REMARK   20  A    between atoms: _47  and  _50
REMARK   21  A    between atoms: _50  and  _51
REMARK   22  A    between atoms: _54  and  _56
REMARK   23  A    between atoms: _56  and  _57
REMARK   24  A    between atoms: _56  and  _59
REMARK   25  A    between atoms: _59  and  _60
REMARK   26  A    between atoms: _65  and  _67
REMARK   27  A    between atoms: _67  and  _68
REMARK   28  A    between atoms: _67  and  _70
REMARK   29  A    between atoms: _70  and  _71
REMARK   30  A    between atoms: _71  and  _72
REMARK   31  A    between atoms: _75  and  _77
REMARK   32  A    between atoms: _77  and  _78
REMARK   33  A    between atoms: _80  and  _82
REMARK   34  A    between atoms: _82  and  _83
REMARK   35  A    between atoms: _82  and  _85
REMARK   36  A    between atoms: _85  and  _86
REMARK   37  A    between atoms: _91  and  _93
REMARK   38  A    between atoms: _93  and  _94
REMARK   39  A    between atoms: _93  and  _96
REMARK   40  A    between atoms: _96  and  _97
REMARK   41  A    between atoms: _100  and  _102
REMARK   42  A    between atoms: _102  and  _103
REMARK   43  A    between atoms: _106  and  _108
REMARK   44  A    between atoms: _108  and  _109
REMARK   45  A    between atoms: _108  and  _111
REMARK   46  A    between atoms: _111  and  _112
REMARK   47  A    between atoms: _115  and  _117
REMARK   48  A    between atoms: _117  and  _118
REMARK   49  A    between atoms: _117  and  _120
REMARK   50  A    between atoms: _123  and  _125
REMARK   51  A    between atoms: _125  and  _126
REMARK   52  A    between atoms: _125  and  _128
REMARK   53  A    between atoms: _128  and  _129
REMARK   54  A    between atoms: _131  and  _133
REMARK   55  A    between atoms: _133  and  _134
REMARK   56  A    between atoms: _133  and  _136
REMARK   57  A    between atoms: _136  and  _137
REMARK   58  A    between atoms: _140  and  _142
REMARK   59  A    between atoms: _142  and  _143
REMARK   60  A    between atoms: _142  and  _145
REMARK   61  A    between atoms: _145  and  _146
REMARK   62  A    between atoms: _152  and  _154
REMARK   63  A    between atoms: _154  and  _155
REMARK   64  A    between atoms: _154  and  _157
REMARK   65  A    between atoms: _160  and  _162
REMARK   66  A    between atoms: _162  and  _163
REMARK   67  A    between atoms: _162  and  _165
REMARK   68  A    between atoms: _165  and  _166
REMARK   69  A    between atoms: _171  and  _173
REMARK   70  A    between atoms: _173  and  _174
REMARK   71  A    between atoms: _173  and  _176
REMARK   72  A    between atoms: _176  and  _177
REMARK   73  A    between atoms: _177  and  _178
REMARK   74  A    between atoms: _183  and  _185
REMARK   75  A    between atoms: _185  and  _186
REMARK   76  A    between atoms: _185  and  _188
REMARK   77  A    between atoms: _188  and  _189
REMARK   78  A    between atoms: _194  and  _195
REMARK   79  A    between atoms: _197  and  _199
REMARK   80  A    between atoms: _199  and  _200
REMARK   81  A    between atoms: _199  and  _202
REMARK   82  A    between atoms: _202  and  _203
REMARK   83  A    between atoms: _208  and  _210
REMARK   84  A    between atoms: _210  and  _211
REMARK   85  A    between atoms: _210  and  _213
REMARK   86  A    between atoms: _213  and  _214
REMARK   87  A    between atoms: _220  and  _222
REMARK   88  A    between atoms: _222  and  _223
REMARK   89  A    between atoms: _225  and  _227
REMARK   90  A    between atoms: _227  and  _228
REMARK   91  A    between atoms: _227  and  _230
REMARK   92  A    between atoms: _233  and  _235
REMARK   93  A    between atoms: _235  and  _236
REMARK   94  A    between atoms: _235  and  _238
REMARK   95  A    between atoms: _238  and  _239
REMARK   96  A    between atoms: _242  and  _244
REMARK   97  A    between atoms: _244  and  _245
REMARK   98  A    between atoms: _244  and  _247
REMARK   99  A    between atoms: _247  and  _248
REMARK  100  A    between atoms: _251  and  _253
REMARK  101  A    between atoms: _253  and  _254
REMARK  102  A    between atoms: _253  and  _256
REMARK  103  A    between atoms: _259  and  _261
REMARK  104  A    between atoms: _261  and  _262
REMARK  105  A    between atoms: _261  and  _264
REMARK  106  A    between atoms: _267  and  _269
REMARK  107  A    between atoms: _269  and  _270
REMARK  108  A    between atoms: _269  and  _272
REMARK  109  A    between atoms: _272  and  _273
REMARK  110  A    between atoms: _276  and  _278
REMARK  111  A    between atoms: _278  and  _279
REMARK  112  A    between atoms: _278  and  _281
REMARK  113  A    between atoms: _281  and  _282
REMARK  114  A    between atoms: _285  and  _287
REMARK  115  A    between atoms: _287  and  _288
REMARK  116  A    between atoms: _287  and  _290
REMARK  117  A    between atoms: _290  and  _291
REMARK  118  A    between atoms: _297  and  _299
REMARK  119  A    between atoms: _299  and  _300
REMARK  120  A    between atoms: _299  and  _302
REMARK  121  A    between atoms: _302  and  _303
REMARK  122  A    between atoms: _309  and  _311
REMARK  123  A    between atoms: _311  and  _312
REMARK  124  A    between atoms: _314  and  _316
REMARK  125  A    between atoms: _316  and  _317
REMARK  126  A    between atoms: _316  and  _319
REMARK  127  A    between atoms: _319  and  _320
REMARK  128  A    between atoms: _320  and  _321
REMARK  129  A    between atoms: _324  and  _326
REMARK  130  A    between atoms: _326  and  _327
REMARK  131  A    between atoms: _326  and  _329
REMARK  132  A    between atoms: _329  and  _330
REMARK  133  A    between atoms: _330  and  _331
REMARK  134  A    between atoms: _331  and  _332
REMARK  135  A    between atoms: _332  and  _333
REMARK  136  A    between atoms: _337  and  _339
REMARK  137  A    between atoms: _339  and  _340
REMARK  138  A    between atoms: _339  and  _342
REMARK  139  A    between atoms: _342  and  _343
REMARK  140  A    between atoms: _346  and  _348
REMARK  141  A    between atoms: _348  and  _349
REMARK  142  A    between atoms: _348  and  _351
REMARK  143  A    between atoms: _351  and  _352
REMARK  144  A    between atoms: _357  and  _358
REMARK  145  A    between atoms: _360  and  _362
REMARK  146  A    between atoms: _362  and  _363
REMARK  147  A    between atoms: _362  and  _365
REMARK  148  A    between atoms: _365  and  _366
REMARK  149  A    between atoms: _366  and  _367
REMARK  150  A    between atoms: _372  and  _374
REMARK  151  A    between atoms: _374  and  _375
REMARK  152  A    between atoms: _374  and  _377
REMARK  153  A    between atoms: _377  and  _378
REMARK  154  A    between atoms: _381  and  _383
REMARK  155  A    between atoms: _383  and  _384
REMARK  156  A    between atoms: _383  and  _386
REMARK  157  A    between atoms: _386  and  _387
REMARK  158  A    between atoms: _390  and  _392
REMARK  159  A    between atoms: _392  and  _393
REMARK  160  A    between atoms: _392  and  _395
REMARK  161  A    between atoms: _398  and  _400
REMARK  162  A    between atoms: _400  and  _401
REMARK  163  A    between atoms: _403  and  _405
REMARK  164  A    between atoms: _405  and  _406
REMARK  165  A    between atoms: _405  and  _408
REMARK  166  A    between atoms: _412  and  _413
REMARK  167  A    between atoms: _418  and  _420
REMARK  168  A    between atoms: _420  and  _421
REMARK  169  A    between atoms: _420  and  _423
REMARK  170  A    between atoms: _423  and  _424
REMARK  171  A    between atoms: _427  and  _429
REMARK  172  A    between atoms: _429  and  _430
REMARK  173  A    between atoms: _429  and  _432
REMARK  174  A    between atoms: _435  and  _437
REMARK  175  A    between atoms: _437  and  _438
REMARK  176  A    between atoms: _437  and  _440
REMARK  177  A    between atoms: _440  and  _441
REMARK  178  A    between atoms: _441  and  _442
REMARK  179  A    between atoms: _442  and  _443
REMARK  180  A    between atoms: _452  and  _454
REMARK  181  A    between atoms: _454  and  _455
REMARK  182  A    between atoms: _454  and  _457
REMARK  183  A    between atoms: _457  and  _458
REMARK  184  A    between atoms: _458  and  _459
REMARK  185  A    between atoms: _462  and  _464
REMARK  186  A    between atoms: _464  and  _465
REMARK  187  A    between atoms: _464  and  _467
REMARK  188  A    between atoms: _467  and  _468
REMARK  189  A    between atoms: _471  and  _473
REMARK  190  A    between atoms: _473  and  _474
REMARK  191  A    between atoms: _477  and  _479
REMARK  192  A    between atoms: _479  and  _480
REMARK  193  A    between atoms: _479  and  _482
REMARK  194  A    between atoms: _482  and  _483
REMARK  195  A    between atoms: _483  and  _484
REMARK  196  A    between atoms: _486  and  _488
REMARK  197  A    between atoms: _488  and  _489
REMARK  198  A    between atoms: _488  and  _491
REMARK  199  A    between atoms: _491  and  _492
REMARK  200  A    between atoms: _494  and  _496
REMARK  201  A    between atoms: _496  and  _497
REMARK  202  A    between atoms: _496  and  _499
REMARK  203  A    between atoms: _499  and  _500
REMARK  204  A    between atoms: _502  and  _504
REMARK  205  A    between atoms: _504  and  _505
REMARK  206  A    between atoms: _504  and  _507
REMARK  207  A    between atoms: _507  and  _508
REMARK  208  A    between atoms: _508  and  _509
REMARK  209  A    between atoms: _509  and  _510
REMARK  210  A    between atoms: _519  and  _521
REMARK  211  A    between atoms: _521  and  _522
REMARK  212  A    between atoms: _521  and  _524
REMARK  213  A    between atoms: _524  and  _525
REMARK  214  A    between atoms: _530  and  _532
REMARK  215  A    between atoms: _532  and  _533
REMARK  216  A    between atoms: _532  and  _535
REMARK  217  A    between atoms: _535  and  _536
REMARK  218  A    between atoms: _539  and  _541
REMARK  219  A    between atoms: _541  and  _542
REMARK  220  A    between atoms: _541  and  _544
REMARK  221  A    between atoms: _544  and  _545
REMARK                            x       y       z     vdW  Elec       q    Type
REMARK                         _______ _______ _______ _____ _____    ______ ____
ROOT
ATOM      1  CA  HIS A   8      15.022  18.244  -3.919  0.00  0.00    +0.155 C 
ENDROOT
BRANCH   1   4
ATOM      2  C   LEU A   7      14.713  19.089  -1.738  0.00  0.00    +0.241 C 
ATOM      3  O   LEU A   7      14.973  20.239  -2.163  0.00  0.00    -0.273 OA
ATOM      4  N   HIS A   8      14.738  18.040  -2.533  0.00  0.00    -0.297 N 
ATOM      5  H   HIS A   8      14.556  17.086  -2.162  0.00  0.00    +0.150 HD
BRANCH   2   6
ATOM      6  CA  LEU A   7      14.385  18.804  -0.262  0.00  0.00    +0.149 C 
BRANCH   6   8
ATOM      7  C   ALA A   6      16.543  18.943   0.826  0.00  0.00    +0.241 C 
ATOM      8  N   LEU A   7      15.316  19.393   0.647  0.00  0.00    -0.297 N 
ATOM      9  H   LEU A   7      15.010  20.221   1.197  0.00  0.00    +0.150 HD
ATOM     10  O   ALA A   6      17.025  18.018   0.189  0.00  0.00    -0.273 OA
BRANCH   7  11
ATOM     11  CA  ALA A   6      17.316  19.645   1.936  0.00  0.00    +0.149 C 
ATOM     12  CB  ALA A   6      18.714  19.050   2.081  0.00  0.00    +0.031 C 
BRANCH  11  15
ATOM     13  C   GLY A   5      16.190  18.448   3.772  0.00  0.00    +0.243 C 
ATOM     14  O   GLY A   5      16.341  17.333   3.232  0.00  0.00    -0.273 OA
ATOM     15  N   ALA A   6      16.579  19.595   3.211  0.00  0.00    -0.297 N 
ATOM     16  H   ALA A   6      16.353  20.489   3.693  0.00  0.00    +0.150 HD
BRANCH  13  17
ATOM     17  CA  GLY A   5      15.501  18.567   5.135  0.00  0.00    +0.176 C 
BRANCH  17  20
ATOM     18  C   MET A   4      16.195  16.540   6.296  0.00  0.00    +0.241 C 
ATOM     19  O   MET A   4      17.344  16.969   6.421  0.00  0.00    -0.273 OA
ATOM     20  N   GLY A   5      15.217  17.263   5.751  0.00  0.00    -0.295 N 
ATOM     21  H   GLY A   5      14.242  16.901   5.762  0.00  0.00    +0.150 HD
BRANCH  18  22
ATOM     22  CA  MET A   4      15.820  15.139   6.794  0.00  0.00    +0.149 C 
BRANCH  22  25
ATOM     23  C   THR A   3      13.487  14.328   6.613  0.00  0.00    +0.243 C 
ATOM     24  O   THR A   3      13.232  14.413   7.816  0.00  0.00    -0.273 OA
ATOM     25  N   MET A   4      14.657  14.629   6.062  0.00  0.00    -0.297 N 
ATOM     26  H   MET A   4      14.755  14.493   5.036  0.00  0.00    +0.150 HD
BRANCH  23  27
ATOM     27  CA  THR A   3      12.439  13.866   5.634  0.00  0.00    +0.176 C 
BRANCH  27  29
ATOM     28  C   PRO A   2      10.656  12.218   5.961  0.00  0.00    +0.241 C 
ATOM     29  N   THR A   3      11.198  13.399   6.308  0.00  0.00    -0.295 N 
ATOM     30  H   THR A   3      10.752  13.983   7.044  0.00  0.00    +0.150 HD
ATOM     31  O   PRO A   2      11.038  11.529   4.982  0.00  0.00    -0.273 OA
BRANCH  28  34
ATOM     32  C   VAL A   1       7.689  12.456   5.258  0.00  0.00    +0.241 C 
ATOM     33  N   PRO A   2       8.419  11.456   5.785  0.00  0.00    -0.272 N 
ATOM     34  CA  PRO A   2       9.480  11.751   6.755  0.00  0.00    +0.152 C 
ATOM     35  CB  PRO A   2       9.778  10.394   7.404  0.00  0.00    +0.031 C 
ATOM     36  CG  PRO A   2       8.631   9.446   6.906  0.00  0.00    +0.024 C 
ATOM     37  CD  PRO A   2       8.267  10.002   5.543  0.00  0.00    +0.094 C 
ATOM     38  O   VAL A   1       7.912  13.637   5.494  0.00  0.00    -0.273 OA
BRANCH  32  39
ATOM     39  CA  VAL A   1       6.495  12.062   4.388  0.00  0.00    +0.145 C 
BRANCH  39  40
ATOM     40  CB  VAL A   1       6.413  12.949   3.108  0.00  0.00    +0.025 C 
ATOM     41  CG2 VAL A   1       5.154  12.624   2.326  0.00  0.00    +0.002 C 
ATOM     42  CG1 VAL A   1       7.649  12.716   2.228  0.00  0.00    +0.002 C 
ENDBRANCH  39  40
BRANCH  39  43
ATOM     43  N   VAL A   1       5.284  12.126   5.187  0.00  0.00    -0.238 NA
ATOM     44  H   VAL A   1       4.997  13.027   5.619  0.00  0.00    +0.142 HD
ENDBRANCH  39  43
ENDBRANCH  32  39
ENDBRANCH  28  34
ENDBRANCH  27  29
BRANCH  27  45
ATOM     45  CB  THR A   3      12.197  15.029   4.705  0.00  0.00    +0.137 C 
ATOM     46  CG2 THR A   3      10.912  14.823   3.899  0.00  0.00    +0.034 C 
BRANCH  45  47
ATOM     47  OG1 THR A   3      12.074  16.196   5.515  0.00  0.00    -0.382 OA
ATOM     48  HG1 THR A   3      11.314  16.084   6.140  0.00  0.00    +0.210 HD
ENDBRANCH  45  47
ENDBRANCH  27  45
ENDBRANCH  23  27
ENDBRANCH  22  25
BRANCH  22  49
ATOM     49  CB  MET A   4      17.019  14.189   6.677  0.00  0.00    +0.041 C 
BRANCH  49  50
ATOM     50  CG  MET A   4      16.870  13.005   7.572  0.00  0.00    +0.060 C 
BRANCH  50  51
ATOM     51  SD  MET A   4      18.377  12.055   8.012  0.00  0.00    -0.139 S 
ATOM     52  CE  MET A   4      18.380  10.977   6.605  0.00  0.00    +0.069 C 
ENDBRANCH  50  51
ENDBRANCH  49  50
ENDBRANCH  22  49
ENDBRANCH  18  22
ENDBRANCH  17  20
ENDBRANCH  13  17
ENDBRANCH  11  15
ENDBRANCH   7  11
ENDBRANCH   6   8
BRANCH   6  53
ATOM     53  CB  LEU A   7      13.001  19.322   0.100  0.00  0.00    +0.029 C 
BRANCH  53  54
ATOM     54  CG  LEU A   7      12.564  19.096   1.557  0.00  0.00    +0.002 C 
ATOM     55  CD2 LEU A   7      12.990  17.725   2.056  0.00  0.00    +0.000 C 
ATOM     56  CD1 LEU A   7      11.064  19.221   1.698  0.00  0.00    +0.000 C 
ENDBRANCH  53  54
ENDBRANCH   6  53
ENDBRANCH   2   6
ENDBRANCH   1   4
BRANCH   1  57
ATOM     57  C   HIS A   8      13.909  17.605  -4.675  0.00  0.00    +0.241 C 
ATOM     58  O   HIS A   8      13.029  16.967  -4.073  0.00  0.00    -0.273 OA
ATOM     59  N   GLU A   9      13.895  17.804  -5.979  0.00  0.00    -0.297 N 
ATOM     60  H   GLU A   9      14.671  18.336  -6.423  0.00  0.00    +0.150 HD
BRANCH  59  61
ATOM     61  CA  GLU A   9      12.815  17.294  -6.807  0.00  0.00    +0.149 C 
BRANCH  61  62
ATOM     62  C   GLU A   9      12.416  15.866  -6.369  0.00  0.00    +0.241 C 
ATOM     63  N   GLY A  10      13.407  15.118  -5.881  0.00  0.00    -0.295 N 
ATOM     64  H   GLY A  10      14.360  15.531  -5.824  0.00  0.00    +0.150 HD
ATOM     65  O   GLU A   9      11.236  15.471  -6.418  0.00  0.00    -0.273 OA
BRANCH  63  66
ATOM     66  CA  GLY A  10      13.211  13.735  -5.420  0.00  0.00    +0.176 C 
BRANCH  66  67
ATOM     67  C   GLY A  10      12.371  13.560  -4.166  0.00  0.00    +0.243 C 
ATOM     68  N   HIS A  11      12.458  14.463  -3.211  0.00  0.00    -0.297 N 
ATOM     69  H   HIS A  11      13.223  15.167  -3.221  0.00  0.00    +0.150 HD
ATOM     70  O   GLY A  10      11.633  12.627  -4.053  0.00  0.00    -0.273 OA
BRANCH  68  71
ATOM     71  CA  HIS A  11      11.467  14.463  -2.139  0.00  0.00    +0.155 C 
BRANCH  71  72
ATOM     72  C   HIS A  11      10.095  14.861  -2.669  0.00  0.00    +0.241 C 
ATOM     73  O   HIS A  11       9.094  14.380  -2.147  0.00  0.00    -0.273 OA
ATOM     74  N   LEU A  12      10.038  15.708  -3.708  0.00  0.00    -0.297 N 
ATOM     75  H   LEU A  12      10.900  15.945  -4.239  0.00  0.00    +0.150 HD
BRANCH  74  76
ATOM     76  CA  LEU A  12       8.749  16.297  -4.089  0.00  0.00    +0.149 C 
BRANCH  76  77
ATOM     77  C   LEU A  12       7.820  15.226  -4.730  0.00  0.00    +0.241 C 
ATOM     78  O   LEU A  12       6.572  15.237  -4.545  0.00  0.00    -0.273 OA
ATOM     79  N   ALA A  13       8.447  14.294  -5.451  0.00  0.00    -0.297 N 
ATOM     80  H   ALA A  13       9.437  14.450  -5.729  0.00  0.00    +0.150 HD
BRANCH  79  81
ATOM     81  CA  ALA A  13       7.778  13.060  -5.860  0.00  0.00    +0.149 C 
ATOM     82  CB  ALA A  13       8.779  12.056  -6.440  0.00  0.00    +0.031 C 
BRANCH  81  83
ATOM     83  C   ALA A  13       7.061  12.452  -4.667  0.00  0.00    +0.241 C 
ATOM     84  N   LEU A  14       7.783  12.272  -3.560  0.00  0.00    -0.297 N 
ATOM     85  H   LEU A  14       8.786  12.548  -3.546  0.00  0.00    +0.150 HD
ATOM     86  O   ALA A  13       5.863  12.176  -4.735  0.00  0.00    -0.273 OA
BRANCH  84  87
ATOM     87  CA  LEU A  14       7.171  11.688  -2.365  0.00  0.00    +0.149 C 
BRANCH  87  88
ATOM     88  C   LEU A  14       5.938  12.455  -1.947  0.00  0.00    +0.241 C 
ATOM     89  O   LEU A  14       4.913  11.817  -1.661  0.00  0.00    -0.273 OA
ATOM     90  N   VAL A  15       6.024  13.805  -1.983  0.00  0.00    -0.298 N 
ATOM     91  H   VAL A  15       6.927  14.226  -2.282  0.00  0.00    +0.150 HD
BRANCH  90  92
ATOM     92  CA  VAL A  15       4.907  14.731  -1.621  0.00  0.00    +0.137 C 
BRANCH  92  93
ATOM     93  CB  VAL A  15       5.303  16.204  -1.639  0.00  0.00    +0.026 C 
ATOM     94  CG2 VAL A  15       6.381  16.550  -0.569  0.00  0.00    +0.002 C 
ATOM     95  CG1 VAL A  15       4.038  17.101  -1.448  0.00  0.00    +0.002 C 
ENDBRANCH  92  93
BRANCH  92  96
ATOM     96  C   VAL A  15       3.706  14.653  -2.536  0.00  0.00    +0.227 C 
ATOM     97  O   VAL A  15       2.578  14.558  -2.051  0.00  0.00    -0.286 OA
ENDBRANCH  92  96
ENDBRANCH  90  92
ENDBRANCH  87  88
BRANCH  87  98
ATOM     98  CB  LEU A  14       8.176  11.584  -1.230  0.00  0.00    +0.029 C 
BRANCH  98  99
ATOM     99  CG  LEU A  14       9.477  10.816  -1.512  0.00  0.00    +0.002 C 
ATOM    100  CD2 LEU A  14       9.987  10.396  -0.222  0.00  0.00    +0.000 C 
ATOM    101  CD1 LEU A  14       9.260   9.586  -2.353  0.00  0.00    +0.000 C 
ENDBRANCH  98  99
ENDBRANCH  87  98
ENDBRANCH  84  87
ENDBRANCH  81  83
ENDBRANCH  79  81
ENDBRANCH  76  77
BRANCH  76 102
ATOM    102  CB  LEU A  12       8.932  17.530  -4.971  0.00  0.00    +0.029 C 
BRANCH 102 103
ATOM    103  CG  LEU A  12       9.703  18.738  -4.417  0.00  0.00    +0.002 C 
ATOM    104  CD2 LEU A  12       9.129  19.345  -3.156  0.00  0.00    +0.000 C 
ATOM    105  CD1 LEU A  12       9.828  19.843  -5.505  0.00  0.00    +0.000 C 
ENDBRANCH 102 103
ENDBRANCH  76 102
ENDBRANCH  74  76
ENDBRANCH  71  72
BRANCH  71 106
ATOM    106  CB  HIS A  11      11.888  15.407  -0.990  0.00  0.00    +0.076 C 
BRANCH 106 107
ATOM    107  CG  HIS A  11      13.210  15.057  -0.369  0.00  0.00    +0.082 A 
ATOM    108  CD2 HIS A  11      13.511  14.340   0.742  0.00  0.00    +0.115 A 
ATOM    109  NE2 HIS A  11      14.884  14.336   0.862  0.00  0.00    -0.221 NA
ATOM    110  CE1 HIS A  11      15.405  15.021  -0.144  0.00  0.00    +0.199 A 
ATOM    111  ND1 HIS A  11      14.417  15.481  -0.893  0.00  0.00    -0.227 NA
ENDBRANCH 106 107
ENDBRANCH  71 106
ENDBRANCH  68  71
ENDBRANCH  66  67
ENDBRANCH  63  66
ENDBRANCH  61  62
BRANCH  61 112
ATOM    112  CB  GLU A   9      13.239  17.388  -8.281  0.00  0.00    +0.041 C 
BRANCH 112 113
ATOM    113  CG  GLU A   9      12.107  17.578  -9.303  0.00  0.00    +0.116 C 
BRANCH 113 114
ATOM    114  CD  GLU A   9      11.016  18.561  -8.846  0.00  0.00    +0.365 C 
ATOM    115  OE2 GLU A   9      11.340  19.751  -8.553  0.00  0.00    -0.246 OA
ATOM    116  OE1 GLU A   9       9.833  18.121  -8.786  0.00  0.00    -0.246 OA
ENDBRANCH 113 114
ENDBRANCH 112 113
ENDBRANCH  61 112
ENDBRANCH  59  61
ENDBRANCH   1  57
BRANCH   1 117
ATOM    117  CB  HIS A   8      16.365  17.656  -4.269  0.00  0.00    +0.076 C 
BRANCH 117 118
ATOM    118  CG  HIS A   8      16.528  16.230  -3.866  0.00  0.00    +0.082 A 
ATOM    119  CD2 HIS A   8      17.398  15.644  -3.014  0.00  0.00    +0.115 A 
ATOM    120  NE2 HIS A   8      17.128  14.295  -3.028  0.00  0.00    -0.221 NA
ATOM    121  CE1 HIS A   8      16.133  14.064  -3.865  0.00  0.00    +0.199 A 
ATOM    122  ND1 HIS A   8      15.765  15.213  -4.401  0.00  0.00    -0.227 NA
ENDBRANCH 117 118
ENDBRANCH   1 117
TORSDOF 49
REMARK  Name = ../refined-set-2016/3ioc/3ioc_pocket.pdb
REMARK  221 active torsions:
REMARK  status: ('A' for Active; 'I' for Inactive)
REMARK    1  A    between atoms: _1  and  _3
REMARK    2  A    between atoms: _3  and  _4
REMARK    3  A    between atoms: _3  and  _6
REMARK    4  A    between atoms: _10  and  _11
REMARK    5  A    between atoms: _16  and  _18
REMARK    6  A    between atoms: _18  and  _19
REMARK    7  A    between atoms: _18  and  _21
REMARK    8  A    between atoms: _21  and  _22
REMARK    9  A    between atoms: _25  and  _27
REMARK   10  A    between atoms: _27  and  _28
REMARK   11  A    between atoms: _27  and  _30
REMARK   12  A    between atoms: _30  and  _31
REMARK   13  A    between atoms: _31  and  _32
REMARK   14  A    between atoms: _34  and  _36
REMARK   15  A    between atoms: _36  and  _37
REMARK   16  A    between atoms: _39  and  _41
REMARK   17  A    between atoms: _41  and  _42
REMARK   18  A    between atoms: _45  and  _47
REMARK   19  A    between atoms: _47  and  _48
REMARK   20  A    between atoms: _47  and  _50
REMARK   21  A    between atoms: _50  and  _51
REMARK   22  A    between atoms: _54  and  _56
REMARK   23  A    between atoms: _56  and  _57
REMARK   24  A    between atoms: _56  and  _59
REMARK   25  A    between atoms: _59  and  _60
REMARK   26  A    between atoms: _65  and  _67
REMARK   27  A    between atoms: _67  and  _68
REMARK   28  A    between atoms: _67  and  _70
REMARK   29  A    between atoms: _70  and  _71
REMARK   30  A    between atoms: _71  and  _72
REMARK   31  A    between atoms: _75  and  _77
REMARK   32  A    between atoms: _77  and  _78
REMARK   33  A    between atoms: _80  and  _82
REMARK   34  A    between atoms: _82  and  _83
REMARK   35  A    between atoms: _82  and  _85
REMARK   36  A    between atoms: _85  and  _86
REMARK   37  A    between atoms: _91  and  _93
REMARK   38  A    between atoms: _93  and  _94
REMARK   39  A    between atoms: _93  and  _96
REMARK   40  A    between atoms: _96  and  _97
REMARK   41  A    between atoms: _100  and  _102
REMARK   42  A    between atoms: _102  and  _103
REMARK   43  A    between atoms: _106  and  _108
REMARK   44  A    between atoms: _108  and  _109
REMARK   45  A    between atoms: _108  and  _111
REMARK   46  A    between atoms: _111  and  _112
REMARK   47  A    between atoms: _115  and  _117
REMARK   48  A    between atoms: _117  and  _118
REMARK   49  A    between atoms: _117  and  _120
REMARK   50  A    between atoms: _123  and  _125
REMARK   51  A    between atoms: _125  and  _126
REMARK   52  A    between atoms: _125  and  _128
REMARK   53  A    between atoms: _128  and  _129
REMARK   54  A    between atoms: _131  and  _133
REMARK   55  A    between atoms: _133  and  _134
REMARK   56  A    between atoms: _133  and  _136
REMARK   57  A    between atoms: _136  and  _137
REMARK   58  A    between atoms: _140  and  _142
REMARK   59  A    between atoms: _142  and  _143
REMARK   60  A    between atoms: _142  and  _145
REMARK   61  A    between atoms: _145  and  _146
REMARK   62  A    between atoms: _152  and  _154
REMARK   63  A    between atoms: _154  and  _155
REMARK   64  A    between atoms: _154  and  _157
REMARK   65  A    between atoms: _160  and  _162
REMARK   66  A    between atoms: _162  and  _163
REMARK   67  A    between atoms: _162  and  _165
REMARK   68  A    between atoms: _165  and  _166
REMARK   69  A    between atoms: _171  and  _173
REMARK   70  A    between atoms: _173  and  _174
REMARK   71  A    between atoms: _173  and  _176
REMARK   72  A    between atoms: _176  and  _177
REMARK   73  A    between atoms: _177  and  _178
REMARK   74  A    between atoms: _183  and  _185
REMARK   75  A    between atoms: _185  and  _186
REMARK   76  A    between atoms: _185  and  _188
REMARK   77  A    between atoms: _188  and  _189
REMARK   78  A    between atoms: _194  and  _195
REMARK   79  A    between atoms: _197  and  _199
REMARK   80  A    between atoms: _199  and  _200
REMARK   81  A    between atoms: _199  and  _202
REMARK   82  A    between atoms: _202  and  _203
REMARK   83  A    between atoms: _208  and  _210
REMARK   84  A    between atoms: _210  and  _211
REMARK   85  A    between atoms: _210  and  _213
REMARK   86  A    between atoms: _213  and  _214
REMARK   87  A    between atoms: _220  and  _222
REMARK   88  A    between atoms: _222  and  _223
REMARK   89  A    between atoms: _225  and  _227
REMARK   90  A    between atoms: _227  and  _228
REMARK   91  A    between atoms: _227  and  _230
REMARK   92  A    between atoms: _233  and  _235
REMARK   93  A    between atoms: _235  and  _236
REMARK   94  A    between atoms: _235  and  _238
REMARK   95  A    between atoms: _238  and  _239
REMARK   96  A    between atoms: _242  and  _244
REMARK   97  A    between atoms: _244  and  _245
REMARK   98  A    between atoms: _244  and  _247
REMARK   99  A    between atoms: _247  and  _248
REMARK  100  A    between atoms: _251  and  _253
REMARK  101  A    between atoms: _253  and  _254
REMARK  102  A    between atoms: _253  and  _256
REMARK  103  A    between atoms: _259  and  _261
REMARK  104  A    between atoms: _261  and  _262
REMARK  105  A    between atoms: _261  and  _264
REMARK  106  A    between atoms: _267  and  _269
REMARK  107  A    between atoms: _269  and  _270
REMARK  108  A    between atoms: _269  and  _272
REMARK  109  A    between atoms: _272  and  _273
REMARK  110  A    between atoms: _276  and  _278
REMARK  111  A    between atoms: _278  and  _279
REMARK  112  A    between atoms: _278  and  _281
REMARK  113  A    between atoms: _281  and  _282
REMARK  114  A    between atoms: _285  and  _287
REMARK  115  A    between atoms: _287  and  _288
REMARK  116  A    between atoms: _287  and  _290
REMARK  117  A    between atoms: _290  and  _291
REMARK  118  A    between atoms: _297  and  _299
REMARK  119  A    between atoms: _299  and  _300
REMARK  120  A    between atoms: _299  and  _302
REMARK  121  A    between atoms: _302  and  _303
REMARK  122  A    between atoms: _309  and  _311
REMARK  123  A    between atoms: _311  and  _312
REMARK  124  A    between atoms: _314  and  _316
REMARK  125  A    between atoms: _316  and  _317
REMARK  126  A    between atoms: _316  and  _319
REMARK  127  A    between atoms: _319  and  _320
REMARK  128  A    between atoms: _320  and  _321
REMARK  129  A    between atoms: _324  and  _326
REMARK  130  A    between atoms: _326  and  _327
REMARK  131  A    between atoms: _326  and  _329
REMARK  132  A    between atoms: _329  and  _330
REMARK  133  A    between atoms: _330  and  _331
REMARK  134  A    between atoms: _331  and  _332
REMARK  135  A    between atoms: _332  and  _333
REMARK  136  A    between atoms: _337  and  _339
REMARK  137  A    between atoms: _339  and  _340
REMARK  138  A    between atoms: _339  and  _342
REMARK  139  A    between atoms: _342  and  _343
REMARK  140  A    between atoms: _346  and  _348
REMARK  141  A    between atoms: _348  and  _349
REMARK  142  A    between atoms: _348  and  _351
REMARK  143  A    between atoms: _351  and  _352
REMARK  144  A    between atoms: _357  and  _358
REMARK  145  A    between atoms: _360  and  _362
REMARK  146  A    between atoms: _362  and  _363
REMARK  147  A    between atoms: _362  and  _365
REMARK  148  A    between atoms: _365  and  _366
REMARK  149  A    between atoms: _366  and  _367
REMARK  150  A    between atoms: _372  and  _374
REMARK  151  A    between atoms: _374  and  _375
REMARK  152  A    between atoms: _374  and  _377
REMARK  153  A    between atoms: _377  and  _378
REMARK  154  A    between atoms: _381  and  _383
REMARK  155  A    between atoms: _383  and  _384
REMARK  156  A    between atoms: _383  and  _386
REMARK  157  A    between atoms: _386  and  _387
REMARK  158  A    between atoms: _390  and  _392
REMARK  159  A    between atoms: _392  and  _393
REMARK  160  A    between atoms: _392  and  _395
REMARK  161  A    between atoms: _398  and  _400
REMARK  162  A    between atoms: _400  and  _401
REMARK  163  A    between atoms: _403  and  _405
REMARK  164  A    between atoms: _405  and  _406
REMARK  165  A    between atoms: _405  and  _408
REMARK  166  A    between atoms: _412  and  _413
REMARK  167  A    between atoms: _418  and  _420
REMARK  168  A    between atoms: _420  and  _421
REMARK  169  A    between atoms: _420  and  _423
REMARK  170  A    between atoms: _423  and  _424
REMARK  171  A    between atoms: _427  and  _429
REMARK  172  A    between atoms: _429  and  _430
REMARK  173  A    between atoms: _429  and  _432
REMARK  174  A    between atoms: _435  and  _437
REMARK  175  A    between atoms: _437  and  _438
REMARK  176  A    between atoms: _437  and  _440
REMARK  177  A    between atoms: _440  and  _441
REMARK  178  A    between atoms: _441  and  _442
REMARK  179  A    between atoms: _442  and  _443
REMARK  180  A    between atoms: _452  and  _454
REMARK  181  A    between atoms: _454  and  _455
REMARK  182  A    between atoms: _454  and  _457
REMARK  183  A    between atoms: _457  and  _458
REMARK  184  A    between atoms: _458  and  _459
REMARK  185  A    between atoms: _462  and  _464
REMARK  186  A    between atoms: _464  and  _465
REMARK  187  A    between atoms: _464  and  _467
REMARK  188  A    between atoms: _467  and  _468
REMARK  189  A    between atoms: _471  and  _473
REMARK  190  A    between atoms: _473  and  _474
REMARK  191  A    between atoms: _477  and  _479
REMARK  192  A    between atoms: _479  and  _480
REMARK  193  A    between atoms: _479  and  _482
REMARK  194  A    between atoms: _482  and  _483
REMARK  195  A    between atoms: _483  and  _484
REMARK  196  A    between atoms: _486  and  _488
REMARK  197  A    between atoms: _488  and  _489
REMARK  198  A    between atoms: _488  and  _491
REMARK  199  A    between atoms: _491  and  _492
REMARK  200  A    between atoms: _494  and  _496
REMARK  201  A    between atoms: _496  and  _497
REMARK  202  A    between atoms: _496  and  _499
REMARK  203  A    between atoms: _499  and  _500
REMARK  204  A    between atoms: _502  and  _504
REMARK  205  A    between atoms: _504  and  _505
REMARK  206  A    between atoms: _504  and  _507
REMARK  207  A    between atoms: _507  and  _508
REMARK  208  A    between atoms: _508  and  _509
REMARK  209  A    between atoms: _509  and  _510
REMARK  210  A    between atoms: _519  and  _521
REMARK  211  A    between atoms: _521  and  _522
REMARK  212  A    between atoms: _521  and  _524
REMARK  213  A    between atoms: _524  and  _525
REMARK  214  A    between atoms: _530  and  _532
REMARK  215  A    between atoms: _532  and  _533
REMARK  216  A    between atoms: _532  and  _535
REMARK  217  A    between atoms: _535  and  _536
REMARK  218  A    between atoms: _539  and  _541
REMARK  219  A    between atoms: _541  and  _542
REMARK  220  A    between atoms: _541  and  _544
REMARK  221  A    between atoms: _544  and  _545
REMARK                            x       y       z     vdW  Elec       q    Type
REMARK                         _______ _______ _______ _____ _____    ______ ____
ROOT
ATOM      1  CA  PHE A   3      14.262  16.266  11.366  0.00  0.00    +0.153 C 
ENDROOT
BRANCH   1   4
ATOM      2  C   ILE A   2      12.771  17.522  10.006  0.00  0.00    +0.241 C 
ATOM      3  O   ILE A   2      12.672  18.328  10.927  0.00  0.00    -0.273 OA
ATOM      4  N   PHE A   3      13.538  16.462  10.108  0.00  0.00    -0.297 N 
ATOM      5  H   PHE A   3      13.629  15.785   9.323  0.00  0.00    +0.150 HD
BRANCH   2   6
ATOM      6  CA  ILE A   2      11.952  17.686   8.730  0.00  0.00    +0.148 C 
BRANCH   6   8
ATOM      7  C   SER A   1      10.039  16.289   8.331  0.00  0.00    +0.241 C 
ATOM      8  N   ILE A   2      10.625  17.214   9.043  0.00  0.00    -0.297 N 
ATOM      9  H   ILE A   2      10.122  17.621   9.857  0.00  0.00    +0.150 HD
ATOM     10  O   SER A   1      10.590  15.692   7.371  0.00  0.00    -0.274 OA
BRANCH   7  11
ATOM     11  CA  SER A   1       8.633  15.993   8.799  0.00  0.00    +0.174 C 
BRANCH  11  12
ATOM     12  N   SER A   1       7.804  15.742   7.631  0.00  0.00    -0.236 NA
ATOM     13  H   SER A   1       7.885  14.849   7.104  0.00  0.00    +0.142 HD
ENDBRANCH  11  12
BRANCH  11  14
ATOM     14  CB  SER A   1       8.626  14.816   9.788  0.00  0.00    +0.163 C 
BRANCH  14  15
ATOM     15  OG  SER A   1       9.309  13.670   9.228  0.00  0.00    -0.380 OA
ATOM     16  H   SER A   1      10.247  13.913   9.026  0.00  0.00    +0.211 HD
ENDBRANCH  14  15
ENDBRANCH  11  14
ENDBRANCH   7  11
ENDBRANCH   6   8
BRANCH   6  17
ATOM     17  CB  ILE A   2      11.924  19.188   8.245  0.00  0.00    +0.027 C 
ATOM     18  CG2 ILE A   2      13.363  19.610   7.904  0.00  0.00    +0.002 C 
BRANCH  17  19
ATOM     19  CG1 ILE A   2      11.000  19.311   7.033  0.00  0.00    +0.002 C 
ATOM     20  CD1 ILE A   2      10.880  20.724   6.343  0.00  0.00    +0.000 C 
ENDBRANCH  17  19
ENDBRANCH   6  17
ENDBRANCH   2   6
ENDBRANCH   1   4
BRANCH   1  21
ATOM     21  C   PHE A   3      15.559  15.613  11.051  0.00  0.00    +0.241 C 
ATOM     22  N   VAL A   4      16.672  16.187  11.507  0.00  0.00    -0.297 N 
ATOM     23  H   VAL A   4      16.609  17.086  12.026  0.00  0.00    +0.150 HD
ATOM     24  O   PHE A   3      15.545  14.588  10.400  0.00  0.00    -0.273 OA
BRANCH  22  25
ATOM     25  CA  VAL A   4      18.003  15.562  11.286  0.00  0.00    +0.149 C 
BRANCH  25  26
ATOM     26  C   VAL A   4      18.328  14.927  12.585  0.00  0.00    +0.241 C 
ATOM     27  O   VAL A   4      18.441  15.613  13.592  0.00  0.00    -0.273 OA
ATOM     28  N   ASN A   5      18.466  13.619  12.567  0.00  0.00    -0.298 N 
ATOM     29  H   ASN A   5      18.501  13.120  11.655  0.00  0.00    +0.150 HD
BRANCH  28  30
ATOM     30  CA  ASN A   5      18.569  12.869  13.788  0.00  0.00    +0.146 C 
BRANCH  30  31
ATOM     31  C   ASN A   5      20.032  12.704  14.169  0.00  0.00    +0.227 C 
ATOM     32  O   ASN A   5      20.791  12.200  13.371  0.00  0.00    -0.286 OA
ENDBRANCH  30  31
BRANCH  30  33
ATOM     33  CB  ASN A   5      17.895  11.524  13.498  0.00  0.00    +0.112 C 
BRANCH  33  34
ATOM     34  CG  ASN A   5      18.017  10.541  14.635  0.00  0.00    +0.222 C 
ATOM     35  OD1 ASN A   5      18.848  10.713  15.526  0.00  0.00    -0.275 OA
ATOM     36  ND2 ASN A   5      17.196   9.482  14.599  0.00  0.00    -0.329 N 
ATOM     37 HD21 ASN A   5      17.245   8.760  15.346  0.00  0.00    +0.145 HD
ATOM     38 HD22 ASN A   5      16.510   9.382  13.824  0.00  0.00    +0.145 HD
ENDBRANCH  33  34
ENDBRANCH  30  33
ENDBRANCH  28  30
ENDBRANCH  25  26
BRANCH  25  39
ATOM     39  CB  VAL A   4      19.120  16.562  10.971  0.00  0.00    +0.027 C 
ATOM     40  CG2 VAL A   4      20.431  15.828  10.748  0.00  0.00    +0.002 C 
ATOM     41  CG1 VAL A   4      18.772  17.427   9.757  0.00  0.00    +0.002 C 
ENDBRANCH  25  39
ENDBRANCH  22  25
ENDBRANCH   1  21
BRANCH   1  42
ATOM     42  CB  PHE A   3      13.459  15.357  12.307  0.00  0.00    +0.055 C 
BRANCH  42  43
ATOM     43  CG  PHE A   3      14.166  15.009  13.584  0.00  0.00    -0.020 A 
ATOM     44  CD2 PHE A   3      14.489  15.993  14.517  0.00  0.00    -0.004 A 
ATOM     45  CE2 PHE A   3      15.175  15.659  15.684  0.00  0.00    -0.000 A 
ATOM     46  CZ  PHE A   3      15.483  14.300  15.969  0.00  0.00    -0.000 A 
ATOM     47  CE1 PHE A   3      15.159  13.337  15.060  0.00  0.00    -0.000 A 
ATOM     48  CD1 PHE A   3      14.495  13.690  13.870  0.00  0.00    -0.004 A 
ENDBRANCH  42  43
ENDBRANCH   1  42
TORSDOF 19
REMARK  Name = ../refined-set-2016/3ioc/3ioc_pocket.pdb
REMARK  221 active torsions:
REMARK  status: ('A' for Active; 'I' for Inactive)
REMARK    1  A    between atoms: _1  and  _3
REMARK    2  A    between atoms: _3  and  _4
REMARK    3  A    between atoms: _3  and  _6
REMARK    4  A    between atoms: _10  and  _11
REMARK    5  A    between atoms: _16  and  _18
REMARK    6  A    between atoms: _18  and  _19
REMARK    7  A    between atoms: _18  and  _21
REMARK    8  A    between atoms: _21  and  _22
REMARK    9  A    between atoms: _25  and  _27
REMARK   10  A    between atoms: _27  and  _28
REMARK   11  A    between atoms: _27  and  _30
REMARK   12  A    between atoms: _30  and  _31
REMARK   13  A    between atoms: _31  and  _32
REMARK   14  A    between atoms: _34  and  _36
REMARK   15  A    between atoms: _36  and  _37
REMARK   16  A    between atoms: _39  and  _41
REMARK   17  A    between atoms: _41  and  _42
REMARK   18  A    between atoms: _45  and  _47
REMARK   19  A    between atoms: _47  and  _48
REMARK   20  A    between atoms: _47  and  _50
REMARK   21  A    between atoms: _50  and  _51
REMARK   22  A    between atoms: _54  and  _56
REMARK   23  A    between atoms: _56  and  _57
REMARK   24  A    between atoms: _56  and  _59
REMARK   25  A    between atoms: _59  and  _60
REMARK   26  A    between atoms: _65  and  _67
REMARK   27  A    between atoms: _67  and  _68
REMARK   28  A    between atoms: _67  and  _70
REMARK   29  A    between atoms: _70  and  _71
REMARK   30  A    between atoms: _71  and  _72
REMARK   31  A    between atoms: _75  and  _77
REMARK   32  A    between atoms: _77  and  _78
REMARK   33  A    between atoms: _80  and  _82
REMARK   34  A    between atoms: _82  and  _83
REMARK   35  A    between atoms: _82  and  _85
REMARK   36  A    between atoms: _85  and  _86
REMARK   37  A    between atoms: _91  and  _93
REMARK   38  A    between atoms: _93  and  _94
REMARK   39  A    between atoms: _93  and  _96
REMARK   40  A    between atoms: _96  and  _97
REMARK   41  A    between atoms: _100  and  _102
REMARK   42  A    between atoms: _102  and  _103
REMARK   43  A    between atoms: _106  and  _108
REMARK   44  A    between atoms: _108  and  _109
REMARK   45  A    between atoms: _108  and  _111
REMARK   46  A    between atoms: _111  and  _112
REMARK   47  A    between atoms: _115  and  _117
REMARK   48  A    between atoms: _117  and  _118
REMARK   49  A    between atoms: _117  and  _120
REMARK   50  A    between atoms: _123  and  _125
REMARK   51  A    between atoms: _125  and  _126
REMARK   52  A    between atoms: _125  and  _128
REMARK   53  A    between atoms: _128  and  _129
REMARK   54  A    between atoms: _131  and  _133
REMARK   55  A    between atoms: _133  and  _134
REMARK   56  A    between atoms: _133  and  _136
REMARK   57  A    between atoms: _136  and  _137
REMARK   58  A    between atoms: _140  and  _142
REMARK   59  A    between atoms: _142  and  _143
REMARK   60  A    between atoms: _142  and  _145
REMARK   61  A    between atoms: _145  and  _146
REMARK   62  A    between atoms: _152  and  _154
REMARK   63  A    between atoms: _154  and  _155
REMARK   64  A    between atoms: _154  and  _157
REMARK   65  A    between atoms: _160  and  _162
REMARK   66  A    between atoms: _162  and  _163
REMARK   67  A    between atoms: _162  and  _165
REMARK   68  A    between atoms: _165  and  _166
REMARK   69  A    between atoms: _171  and  _173
REMARK   70  A    between atoms: _173  and  _174
REMARK   71  A    between atoms: _173  and  _176
REMARK   72  A    between atoms: _176  and  _177
REMARK   73  A    between atoms: _177  and  _178
REMARK   74  A    between atoms: _183  and  _185
REMARK   75  A    between atoms: _185  and  _186
REMARK   76  A    between atoms: _185  and  _188
REMARK   77  A    between atoms: _188  and  _189
REMARK   78  A    between atoms: _194  and  _195
REMARK   79  A    between atoms: _197  and  _199
REMARK   80  A    between atoms: _199  and  _200
REMARK   81  A    between atoms: _199  and  _202
REMARK   82  A    between atoms: _202  and  _203
REMARK   83  A    between atoms: _208  and  _210
REMARK   84  A    between atoms: _210  and  _211
REMARK   85  A    between atoms: _210  and  _213
REMARK   86  A    between atoms: _213  and  _214
REMARK   87  A    between atoms: _220  and  _222
REMARK   88  A    between atoms: _222  and  _223
REMARK   89  A    between atoms: _225  and  _227
REMARK   90  A    between atoms: _227  and  _228
REMARK   91  A    between atoms: _227  and  _230
REMARK   92  A    between atoms: _233  and  _235
REMARK   93  A    between atoms: _235  and  _236
REMARK   94  A    between atoms: _235  and  _238
REMARK   95  A    between atoms: _238  and  _239
REMARK   96  A    between atoms: _242  and  _244
REMARK   97  A    between atoms: _244  and  _245
REMARK   98  A    between atoms: _244  and  _247
REMARK   99  A    between atoms: _247  and  _248
REMARK  100  A    between atoms: _251  and  _253
REMARK  101  A    between atoms: _253  and  _254
REMARK  102  A    between atoms: _253  and  _256
REMARK  103  A    between atoms: _259  and  _261
REMARK  104  A    between atoms: _261  and  _262
REMARK  105  A    between atoms: _261  and  _264
REMARK  106  A    between atoms: _267  and  _269
REMARK  107  A    between atoms: _269  and  _270
REMARK  108  A    between atoms: _269  and  _272
REMARK  109  A    between atoms: _272  and  _273
REMARK  110  A    between atoms: _276  and  _278
REMARK  111  A    between atoms: _278  and  _279
REMARK  112  A    between atoms: _278  and  _281
REMARK  113  A    between atoms: _281  and  _282
REMARK  114  A    between atoms: _285  and  _287
REMARK  115  A    between atoms: _287  and  _288
REMARK  116  A    between atoms: _287  and  _290
REMARK  117  A    between atoms: _290  and  _291
REMARK  118  A    between atoms: _297  and  _299
REMARK  119  A    between atoms: _299  and  _300
REMARK  120  A    between atoms: _299  and  _302
REMARK  121  A    between atoms: _302  and  _303
REMARK  122  A    between atoms: _309  and  _311
REMARK  123  A    between atoms: _311  and  _312
REMARK  124  A    between atoms: _314  and  _316
REMARK  125  A    between atoms: _316  and  _317
REMARK  126  A    between atoms: _316  and  _319
REMARK  127  A    between atoms: _319  and  _320
REMARK  128  A    between atoms: _320  and  _321
REMARK  129  A    between atoms: _324  and  _326
REMARK  130  A    between atoms: _326  and  _327
REMARK  131  A    between atoms: _326  and  _329
REMARK  132  A    between atoms: _329  and  _330
REMARK  133  A    between atoms: _330  and  _331
REMARK  134  A    between atoms: _331  and  _332
REMARK  135  A    between atoms: _332  and  _333
REMARK  136  A    between atoms: _337  and  _339
REMARK  137  A    between atoms: _339  and  _340
REMARK  138  A    between atoms: _339  and  _342
REMARK  139  A    between atoms: _342  and  _343
REMARK  140  A    between atoms: _346  and  _348
REMARK  141  A    between atoms: _348  and  _349
REMARK  142  A    between atoms: _348  and  _351
REMARK  143  A    between atoms: _351  and  _352
REMARK  144  A    between atoms: _357  and  _358
REMARK  145  A    between atoms: _360  and  _362
REMARK  146  A    between atoms: _362  and  _363
REMARK  147  A    between atoms: _362  and  _365
REMARK  148  A    between atoms: _365  and  _366
REMARK  149  A    between atoms: _366  and  _367
REMARK  150  A    between atoms: _372  and  _374
REMARK  151  A    between atoms: _374  and  _375
REMARK  152  A    between atoms: _374  and  _377
REMARK  153  A    between atoms: _377  and  _378
REMARK  154  A    between atoms: _381  and  _383
REMARK  155  A    between atoms: _383  and  _384
REMARK  156  A    between atoms: _383  and  _386
REMARK  157  A    between atoms: _386  and  _387
REMARK  158  A    between atoms: _390  and  _392
REMARK  159  A    between atoms: _392  and  _393
REMARK  160  A    between atoms: _392  and  _395
REMARK  161  A    between atoms: _398  and  _400
REMARK  162  A    between atoms: _400  and  _401
REMARK  163  A    between atoms: _403  and  _405
REMARK  164  A    between atoms: _405  and  _406
REMARK  165  A    between atoms: _405  and  _408
REMARK  166  A    between atoms: _412  and  _413
REMARK  167  A    between atoms: _418  and  _420
REMARK  168  A    between atoms: _420  and  _421
REMARK  169  A    between atoms: _420  and  _423
REMARK  170  A    between atoms: _423  and  _424
REMARK  171  A    between atoms: _427  and  _429
REMARK  172  A    between atoms: _429  and  _430
REMARK  173  A    between atoms: _429  and  _432
REMARK  174  A    between atoms: _435  and  _437
REMARK  175  A    between atoms: _437  and  _438
REMARK  176  A    between atoms: _437  and  _440
REMARK  177  A    between atoms: _440  and  _441
REMARK  178  A    between atoms: _441  and  _442
REMARK  179  A    between atoms: _442  and  _443
REMARK  180  A    between atoms: _452  and  _454
REMARK  181  A    between atoms: _454  and  _455
REMARK  182  A    between atoms: _454  and  _457
REMARK  183  A    between atoms: _457  and  _458
REMARK  184  A    between atoms: _458  and  _459
REMARK  185  A    between atoms: _462  and  _464
REMARK  186  A    between atoms: _464  and  _465
REMARK  187  A    between atoms: _464  and  _467
REMARK  188  A    between atoms: _467  and  _468
REMARK  189  A    between atoms: _471  and  _473
REMARK  190  A    between atoms: _473  and  _474
REMARK  191  A    between atoms: _477  and  _479
REMARK  192  A    between atoms: _479  and  _480
REMARK  193  A    between atoms: _479  and  _482
REMARK  194  A    between atoms: _482  and  _483
REMARK  195  A    between atoms: _483  and  _484
REMARK  196  A    between atoms: _486  and  _488
REMARK  197  A    between atoms: _488  and  _489
REMARK  198  A    between atoms: _488  and  _491
REMARK  199  A    between atoms: _491  and  _492
REMARK  200  A    between atoms: _494  and  _496
REMARK  201  A    between atoms: _496  and  _497
REMARK  202  A    between atoms: _496  and  _499
REMARK  203  A    between atoms: _499  and  _500
REMARK  204  A    between atoms: _502  and  _504
REMARK  205  A    between atoms: _504  and  _505
REMARK  206  A    between atoms: _504  and  _507
REMARK  207  A    between atoms: _507  and  _508
REMARK  208  A    between atoms: _508  and  _509
REMARK  209  A    between atoms: _509  and  _510
REMARK  210  A    between atoms: _519  and  _521
REMARK  211  A    between atoms: _521  and  _522
REMARK  212  A    between atoms: _521  and  _524
REMARK  213  A    between atoms: _524  and  _525
REMARK  214  A    between atoms: _530  and  _532
REMARK  215  A    between atoms: _532  and  _533
REMARK  216  A    between atoms: _532  and  _535
REMARK  217  A    between atoms: _535  and  _536
REMARK  218  A    between atoms: _539  and  _541
REMARK  219  A    between atoms: _541  and  _542
REMARK  220  A    between atoms: _541  and  _544
REMARK  221  A    between atoms: _544  and  _545
REMARK                            x       y       z     vdW  Elec       q    Type
REMARK                         _______ _______ _______ _____ _____    ______ ____
ROOT
ATOM      1  CB  GLN A   1      21.584   6.488  12.256  0.00  0.00    +0.035 C 
ENDROOT
BRANCH   1   2
ATOM      2  CA  GLN A   1      22.787   6.940  13.123  0.00  0.00    +0.134 C 
BRANCH   2   3
ATOM      3  N   GLN A   1      22.388   7.994  14.085  0.00  0.00    -0.239 NA
ATOM      4  H   GLN A   1      21.720   8.723  13.763  0.00  0.00    +0.142 HD
ENDBRANCH   2   3
BRANCH   2   5
ATOM      5  C   GLN A   1      23.998   7.320  12.233  0.00  0.00    +0.224 C 
ATOM      6  O   GLN A   1      24.534   6.494  11.474  0.00  0.00    -0.287 OA
ENDBRANCH   2   5
ENDBRANCH   1   2
BRANCH   1   7
ATOM      7  CG  GLN A   1      21.005   7.538  11.300  0.00  0.00    +0.087 C 
BRANCH   7   8
ATOM      8  CD  GLN A   1      19.697   8.150  11.794  0.00  0.00    +0.219 C 
ATOM      9  NE2 GLN A   1      19.366   7.902  13.062  0.00  0.00    -0.329 N 
ATOM     10 HE21 GLN A   1      19.989   7.321  13.658  0.00  0.00    +0.145 HD
ATOM     11 HE22 GLN A   1      18.485   8.290  13.455  0.00  0.00    +0.145 HD
ATOM     12  OE1 GLN A   1      18.989   8.837  11.042  0.00  0.00    -0.275 OA
ENDBRANCH   7   8
ENDBRANCH   1   7
TORSDOF 5
REMARK  Name = ../refined-set-2016/3ioc/3ioc_pocket.pdb
REMARK  221 active torsions:
REMARK  status: ('A' for Active; 'I' for Inactive)
REMARK    1  A    between atoms: _1  and  _3
REMARK    2  A    between atoms: _3  and  _4
REMARK    3  A    between atoms: _3  and  _6
REMARK    4  A    between atoms: _10  and  _11
REMARK    5  A    between atoms: _16  and  _18
REMARK    6  A    between atoms: _18  and  _19
REMARK    7  A    between atoms: _18  and  _21
REMARK    8  A    between atoms: _21  and  _22
REMARK    9  A    between atoms: _25  and  _27
REMARK   10  A    between atoms: _27  and  _28
REMARK   11  A    between atoms: _27  and  _30
REMARK   12  A    between atoms: _30  and  _31
REMARK   13  A    between atoms: _31  and  _32
REMARK   14  A    between atoms: _34  and  _36
REMARK   15  A    between atoms: _36  and  _37
REMARK   16  A    between atoms: _39  and  _41
REMARK   17  A    between atoms: _41  and  _42
REMARK   18  A    between atoms: _45  and  _47
REMARK   19  A    between atoms: _47  and  _48
REMARK   20  A    between atoms: _47  and  _50
REMARK   21  A    between atoms: _50  and  _51
REMARK   22  A    between atoms: _54  and  _56
REMARK   23  A    between atoms: _56  and  _57
REMARK   24  A    between atoms: _56  and  _59
REMARK   25  A    between atoms: _59  and  _60
REMARK   26  A    between atoms: _65  and  _67
REMARK   27  A    between atoms: _67  and  _68
REMARK   28  A    between atoms: _67  and  _70
REMARK   29  A    between atoms: _70  and  _71
REMARK   30  A    between atoms: _71  and  _72
REMARK   31  A    between atoms: _75  and  _77
REMARK   32  A    between atoms: _77  and  _78
REMARK   33  A    between atoms: _80  and  _82
REMARK   34  A    between atoms: _82  and  _83
REMARK   35  A    between atoms: _82  and  _85
REMARK   36  A    between atoms: _85  and  _86
REMARK   37  A    between atoms: _91  and  _93
REMARK   38  A    between atoms: _93  and  _94
REMARK   39  A    between atoms: _93  and  _96
REMARK   40  A    between atoms: _96  and  _97
REMARK   41  A    between atoms: _100  and  _102
REMARK   42  A    between atoms: _102  and  _103
REMARK   43  A    between atoms: _106  and  _108
REMARK   44  A    between atoms: _108  and  _109
REMARK   45  A    between atoms: _108  and  _111
REMARK   46  A    between atoms: _111  and  _112
REMARK   47  A    between atoms: _115  and  _117
REMARK   48  A    between atoms: _117  and  _118
REMARK   49  A    between atoms: _117  and  _120
REMARK   50  A    between atoms: _123  and  _125
REMARK   51  A    between atoms: _125  and  _126
REMARK   52  A    between atoms: _125  and  _128
REMARK   53  A    between atoms: _128  and  _129
REMARK   54  A    between atoms: _131  and  _133
REMARK   55  A    between atoms: _133  and  _134
REMARK   56  A    between atoms: _133  and  _136
REMARK   57  A    between atoms: _136  and  _137
REMARK   58  A    between atoms: _140  and  _142
REMARK   59  A    between atoms: _142  and  _143
REMARK   60  A    between atoms: _142  and  _145
REMARK   61  A    between atoms: _145  and  _146
REMARK   62  A    between atoms: _152  and  _154
REMARK   63  A    between atoms: _154  and  _155
REMARK   64  A    between atoms: _154  and  _157
REMARK   65  A    between atoms: _160  and  _162
REMARK   66  A    between atoms: _162  and  _163
REMARK   67  A    between atoms: _162  and  _165
REMARK   68  A    between atoms: _165  and  _166
REMARK   69  A    between atoms: _171  and  _173
REMARK   70  A    between atoms: _173  and  _174
REMARK   71  A    between atoms: _173  and  _176
REMARK   72  A    between atoms: _176  and  _177
REMARK   73  A    between atoms: _177  and  _178
REMARK   74  A    between atoms: _183  and  _185
REMARK   75  A    between atoms: _185  and  _186
REMARK   76  A    between atoms: _185  and  _188
REMARK   77  A    between atoms: _188  and  _189
REMARK   78  A    between atoms: _194  and  _195
REMARK   79  A    between atoms: _197  and  _199
REMARK   80  A    between atoms: _199  and  _200
REMARK   81  A    between atoms: _199  and  _202
REMARK   82  A    between atoms: _202  and  _203
REMARK   83  A    between atoms: _208  and  _210
REMARK   84  A    between atoms: _210  and  _211
REMARK   85  A    between atoms: _210  and  _213
REMARK   86  A    between atoms: _213  and  _214
REMARK   87  A    between atoms: _220  and  _222
REMARK   88  A    between atoms: _222  and  _223
REMARK   89  A    between atoms: _225  and  _227
REMARK   90  A    between atoms: _227  and  _228
REMARK   91  A    between atoms: _227  and  _230
REMARK   92  A    between atoms: _233  and  _235
REMARK   93  A    between atoms: _235  and  _236
REMARK   94  A    between atoms: _235  and  _238
REMARK   95  A    between atoms: _238  and  _239
REMARK   96  A    between atoms: _242  and  _244
REMARK   97  A    between atoms: _244  and  _245
REMARK   98  A    between atoms: _244  and  _247
REMARK   99  A    between atoms: _247  and  _248
REMARK  100  A    between atoms: _251  and  _253
REMARK  101  A    between atoms: _253  and  _254
REMARK  102  A    between atoms: _253  and  _256
REMARK  103  A    between atoms: _259  and  _261
REMARK  104  A    between atoms: _261  and  _262
REMARK  105  A    between atoms: _261  and  _264
REMARK  106  A    between atoms: _267  and  _269
REMARK  107  A    between atoms: _269  and  _270
REMARK  108  A    between atoms: _269  and  _272
REMARK  109  A    between atoms: _272  and  _273
REMARK  110  A    between atoms: _276  and  _278
REMARK  111  A    between atoms: _278  and  _279
REMARK  112  A    between atoms: _278  and  _281
REMARK  113  A    between atoms: _281  and  _282
REMARK  114  A    between atoms: _285  and  _287
REMARK  115  A    between atoms: _287  and  _288
REMARK  116  A    between atoms: _287  and  _290
REMARK  117  A    between atoms: _290  and  _291
REMARK  118  A    between atoms: _297  and  _299
REMARK  119  A    between atoms: _299  and  _300
REMARK  120  A    between atoms: _299  and  _302
REMARK  121  A    between atoms: _302  and  _303
REMARK  122  A    between atoms: _309  and  _311
REMARK  123  A    between atoms: _311  and  _312
REMARK  124  A    between atoms: _314  and  _316
REMARK  125  A    between atoms: _316  and  _317
REMARK  126  A    between atoms: _316  and  _319
REMARK  127  A    between atoms: _319  and  _320
REMARK  128  A    between atoms: _320  and  _321
REMARK  129  A    between atoms: _324  and  _326
REMARK  130  A    between atoms: _326  and  _327
REMARK  131  A    between atoms: _326  and  _329
REMARK  132  A    between atoms: _329  and  _330
REMARK  133  A    between atoms: _330  and  _331
REMARK  134  A    between atoms: _331  and  _332
REMARK  135  A    between atoms: _332  and  _333
REMARK  136  A    between atoms: _337  and  _339
REMARK  137  A    between atoms: _339  and  _340
REMARK  138  A    between atoms: _339  and  _342
REMARK  139  A    between atoms: _342  and  _343
REMARK  140  A    between atoms: _346  and  _348
REMARK  141  A    between atoms: _348  and  _349
REMARK  142  A    between atoms: _348  and  _351
REMARK  143  A    between atoms: _351  and  _352
REMARK  144  A    between atoms: _357  and  _358
REMARK  145  A    between atoms: _360  and  _362
REMARK  146  A    between atoms: _362  and  _363
REMARK  147  A    between atoms: _362  and  _365
REMARK  148  A    between atoms: _365  and  _366
REMARK  149  A    between atoms: _366  and  _367
REMARK  150  A    between atoms: _372  and  _374
REMARK  151  A    between atoms: _374  and  _375
REMARK  152  A    between atoms: _374  and  _377
REMARK  153  A    between atoms: _377  and  _378
REMARK  154  A    between atoms: _381  and  _383
REMARK  155  A    between atoms: _383  and  _384
REMARK  156  A    between atoms: _383  and  _386
REMARK  157  A    between atoms: _386  and  _387
REMARK  158  A    between atoms: _390  and  _392
REMARK  159  A    between atoms: _392  and  _393
REMARK  160  A    between atoms: _392  and  _395
REMARK  161  A    between atoms: _398  and  _400
REMARK  162  A    between atoms: _400  and  _401
REMARK  163  A    between atoms: _403  and  _405
REMARK  164  A    between atoms: _405  and  _406
REMARK  165  A    between atoms: _405  and  _408
REMARK  166  A    between atoms: _412  and  _413
REMARK  167  A    between atoms: _418  and  _420
REMARK  168  A    between atoms: _420  and  _421
REMARK  169  A    between atoms: _420  and  _423
REMARK  170  A    between atoms: _423  and  _424
REMARK  171  A    between atoms: _427  and  _429
REMARK  172  A    between atoms: _429  and  _430
REMARK  173  A    between atoms: _429  and  _432
REMARK  174  A    between atoms: _435  and  _437
REMARK  175  A    between atoms: _437  and  _438
REMARK  176  A    between atoms: _437  and  _440
REMARK  177  A    between atoms: _440  and  _441
REMARK  178  A    between atoms: _441  and  _442
REMARK  179  A    between atoms: _442  and  _443
REMARK  180  A    between atoms: _452  and  _454
REMARK  181  A    between atoms: _454  and  _455
REMARK  182  A    between atoms: _454  and  _457
REMARK  183  A    between atoms: _457  and  _458
REMARK  184  A    between atoms: _458  and  _459
REMARK  185  A    between atoms: _462  and  _464
REMARK  186  A    between atoms: _464  and  _465
REMARK  187  A    between atoms: _464  and  _467
REMARK  188  A    between atoms: _467  and  _468
REMARK  189  A    between atoms: _471  and  _473
REMARK  190  A    between atoms: _473  and  _474
REMARK  191  A    between atoms: _477  and  _479
REMARK  192  A    between atoms: _479  and  _480
REMARK  193  A    between atoms: _479  and  _482
REMARK  194  A    between atoms: _482  and  _483
REMARK  195  A    between atoms: _483  and  _484
REMARK  196  A    between atoms: _486  and  _488
REMARK  197  A    between atoms: _488  and  _489
REMARK  198  A    between atoms: _488  and  _491
REMARK  199  A    between atoms: _491  and  _492
REMARK  200  A    between atoms: _494  and  _496
REMARK  201  A    between atoms: _496  and  _497
REMARK  202  A    between atoms: _496  and  _499
REMARK  203  A    between atoms: _499  and  _500
REMARK  204  A    between atoms: _502  and  _504
REMARK  205  A    between atoms: _504  and  _505
REMARK  206  A    between atoms: _504  and  _507
REMARK  207  A    between atoms: _507  and  _508
REMARK  208  A    between atoms: _508  and  _509
REMARK  209  A    between atoms: _509  and  _510
REMARK  210  A    between atoms: _519  and  _521
REMARK  211  A    between atoms: _521  and  _522
REMARK  212  A    between atoms: _521  and  _524
REMARK  213  A    between atoms: _524  and  _525
REMARK  214  A    between atoms: _530  and  _532
REMARK  215  A    between atoms: _532  and  _533
REMARK  216  A    between atoms: _532  and  _535
REMARK  217  A    between atoms: _535  and  _536
REMARK  218  A    between atoms: _539  and  _541
REMARK  219  A    between atoms: _541  and  _542
REMARK  220  A    between atoms: _541  and  _544
REMARK  221  A    between atoms: _544  and  _545
REMARK                            x       y       z     vdW  Elec       q    Type
REMARK                         _______ _______ _______ _____ _____    ______ ____
ROOT
ATOM      1  CG  TYR A   1      16.664  11.546  20.899  0.00  0.00    -0.020 A 
ATOM      2  CD2 TYR A   1      16.319  10.189  20.813  0.00  0.00    -0.001 A 
ATOM      3  CE2 TYR A   1      16.197   9.521  19.575  0.00  0.00    +0.036 A 
ATOM      4  CZ  TYR A   1      16.424  10.219  18.412  0.00  0.00    +0.134 A 
ATOM      5  CE1 TYR A   1      16.786  11.588  18.469  0.00  0.00    +0.036 A 
ATOM      6  CD1 TYR A   1      16.894  12.237  19.729  0.00  0.00    -0.001 A 
ENDROOT
BRANCH   4   7
ATOM      7  OH  TYR A   1      16.307   9.547  17.204  0.00  0.00    -0.506 OA
ATOM      8  HH  TYR A   1      17.176   9.570  16.729  0.00  0.00    +0.292 HD
ENDBRANCH   4   7
BRANCH   1   9
ATOM      9  CB  TYR A   1      16.697  12.235  22.234  0.00  0.00    +0.051 C 
BRANCH   9  10
ATOM     10  CA  TYR A   1      15.254  12.460  22.781  0.00  0.00    +0.137 C 
BRANCH  10  11
ATOM     11  N   TYR A   1      14.464  13.267  21.858  0.00  0.00    -0.239 NA
ATOM     12  H   TYR A   1      14.717  14.267  21.728  0.00  0.00    +0.142 HD
ENDBRANCH  10  11
BRANCH  10  13
ATOM     13  C   TYR A   1      15.291  13.045  24.192  0.00  0.00    +0.224 C 
ATOM     14  O   TYR A   1      16.364  13.283  24.708  0.00  0.00    -0.287 OA
ENDBRANCH  10  13
ENDBRANCH   9  10
ENDBRANCH   1   9
TORSDOF 5
REMARK  Name = ../refined-set-2016/3ioc/3ioc_pocket.pdb
REMARK  221 active torsions:
REMARK  status: ('A' for Active; 'I' for Inactive)
REMARK    1  A    between atoms: _1  and  _3
REMARK    2  A    between atoms: _3  and  _4
REMARK    3  A    between atoms: _3  and  _6
REMARK    4  A    between atoms: _10  and  _11
REMARK    5  A    between atoms: _16  and  _18
REMARK    6  A    between atoms: _18  and  _19
REMARK    7  A    between atoms: _18  and  _21
REMARK    8  A    between atoms: _21  and  _22
REMARK    9  A    between atoms: _25  and  _27
REMARK   10  A    between atoms: _27  and  _28
REMARK   11  A    between atoms: _27  and  _30
REMARK   12  A    between atoms: _30  and  _31
REMARK   13  A    between atoms: _31  and  _32
REMARK   14  A    between atoms: _34  and  _36
REMARK   15  A    between atoms: _36  and  _37
REMARK   16  A    between atoms: _39  and  _41
REMARK   17  A    between atoms: _41  and  _42
REMARK   18  A    between atoms: _45  and  _47
REMARK   19  A    between atoms: _47  and  _48
REMARK   20  A    between atoms: _47  and  _50
REMARK   21  A    between atoms: _50  and  _51
REMARK   22  A    between atoms: _54  and  _56
REMARK   23  A    between atoms: _56  and  _57
REMARK   24  A    between atoms: _56  and  _59
REMARK   25  A    between atoms: _59  and  _60
REMARK   26  A    between atoms: _65  and  _67
REMARK   27  A    between atoms: _67  and  _68
REMARK   28  A    between atoms: _67  and  _70
REMARK   29  A    between atoms: _70  and  _71
REMARK   30  A    between atoms: _71  and  _72
REMARK   31  A    between atoms: _75  and  _77
REMARK   32  A    between atoms: _77  and  _78
REMARK   33  A    between atoms: _80  and  _82
REMARK   34  A    between atoms: _82  and  _83
REMARK   35  A    between atoms: _82  and  _85
REMARK   36  A    between atoms: _85  and  _86
REMARK   37  A    between atoms: _91  and  _93
REMARK   38  A    between atoms: _93  and  _94
REMARK   39  A    between atoms: _93  and  _96
REMARK   40  A    between atoms: _96  and  _97
REMARK   41  A    between atoms: _100  and  _102
REMARK   42  A    between atoms: _102  and  _103
REMARK   43  A    between atoms: _106  and  _108
REMARK   44  A    between atoms: _108  and  _109
REMARK   45  A    between atoms: _108  and  _111
REMARK   46  A    between atoms: _111  and  _112
REMARK   47  A    between atoms: _115  and  _117
REMARK   48  A    between atoms: _117  and  _118
REMARK   49  A    between atoms: _117  and  _120
REMARK   50  A    between atoms: _123  and  _125
REMARK   51  A    between atoms: _125  and  _126
REMARK   52  A    between atoms: _125  and  _128
REMARK   53  A    between atoms: _128  and  _129
REMARK   54  A    between atoms: _131  and  _133
REMARK   55  A    between atoms: _133  and  _134
REMARK   56  A    between atoms: _133  and  _136
REMARK   57  A    between atoms: _136  and  _137
REMARK   58  A    between atoms: _140  and  _142
REMARK   59  A    between atoms: _142  and  _143
REMARK   60  A    between atoms: _142  and  _145
REMARK   61  A    between atoms: _145  and  _146
REMARK   62  A    between atoms: _152  and  _154
REMARK   63  A    between atoms: _154  and  _155
REMARK   64  A    between atoms: _154  and  _157
REMARK   65  A    between atoms: _160  and  _162
REMARK   66  A    between atoms: _162  and  _163
REMARK   67  A    between atoms: _162  and  _165
REMARK   68  A    between atoms: _165  and  _166
REMARK   69  A    between atoms: _171  and  _173
REMARK   70  A    between atoms: _173  and  _174
REMARK   71  A    between atoms: _173  and  _176
REMARK   72  A    between atoms: _176  and  _177
REMARK   73  A    between atoms: _177  and  _178
REMARK   74  A    between atoms: _183  and  _185
REMARK   75  A    between atoms: _185  and  _186
REMARK   76  A    between atoms: _185  and  _188
REMARK   77  A    between atoms: _188  and  _189
REMARK   78  A    between atoms: _194  and  _195
REMARK   79  A    between atoms: _197  and  _199
REMARK   80  A    between atoms: _199  and  _200
REMARK   81  A    between atoms: _199  and  _202
REMARK   82  A    between atoms: _202  and  _203
REMARK   83  A    between atoms: _208  and  _210
REMARK   84  A    between atoms: _210  and  _211
REMARK   85  A    between atoms: _210  and  _213
REMARK   86  A    between atoms: _213  and  _214
REMARK   87  A    between atoms: _220  and  _222
REMARK   88  A    between atoms: _222  and  _223
REMARK   89  A    between atoms: _225  and  _227
REMARK   90  A    between atoms: _227  and  _228
REMARK   91  A    between atoms: _227  and  _230
REMARK   92  A    between atoms: _233  and  _235
REMARK   93  A    between atoms: _235  and  _236
REMARK   94  A    between atoms: _235  and  _238
REMARK   95  A    between atoms: _238  and  _239
REMARK   96  A    between atoms: _242  and  _244
REMARK   97  A    between atoms: _244  and  _245
REMARK   98  A    between atoms: _244  and  _247
REMARK   99  A    between atoms: _247  and  _248
REMARK  100  A    between atoms: _251  and  _253
REMARK  101  A    between atoms: _253  and  _254
REMARK  102  A    between atoms: _253  and  _256
REMARK  103  A    between atoms: _259  and  _261
REMARK  104  A    between atoms: _261  and  _262
REMARK  105  A    between atoms: _261  and  _264
REMARK  106  A    between atoms: _267  and  _269
REMARK  107  A    between atoms: _269  and  _270
REMARK  108  A    between atoms: _269  and  _272
REMARK  109  A    between atoms: _272  and  _273
REMARK  110  A    between atoms: _276  and  _278
REMARK  111  A    between atoms: _278  and  _279
REMARK  112  A    between atoms: _278  and  _281
REMARK  113  A    between atoms: _281  and  _282
REMARK  114  A    between atoms: _285  and  _287
REMARK  115  A    between atoms: _287  and  _288
REMARK  116  A    between atoms: _287  and  _290
REMARK  117  A    between atoms: _290  and  _291
REMARK  118  A    between atoms: _297  and  _299
REMARK  119  A    between atoms: _299  and  _300
REMARK  120  A    between atoms: _299  and  _302
REMARK  121  A    between atoms: _302  and  _303
REMARK  122  A    between atoms: _309  and  _311
REMARK  123  A    between atoms: _311  and  _312
REMARK  124  A    between atoms: _314  and  _316
REMARK  125  A    between atoms: _316  and  _317
REMARK  126  A    between atoms: _316  and  _319
REMARK  127  A    between atoms: _319  and  _320
REMARK  128  A    between atoms: _320  and  _321
REMARK  129  A    between atoms: _324  and  _326
REMARK  130  A    between atoms: _326  and  _327
REMARK  131  A    between atoms: _326  and  _329
REMARK  132  A    between atoms: _329  and  _330
REMARK  133  A    between atoms: _330  and  _331
REMARK  134  A    between atoms: _331  and  _332
REMARK  135  A    between atoms: _332  and  _333
REMARK  136  A    between atoms: _337  and  _339
REMARK  137  A    between atoms: _339  and  _340
REMARK  138  A    between atoms: _339  and  _342
REMARK  139  A    between atoms: _342  and  _343
REMARK  140  A    between atoms: _346  and  _348
REMARK  141  A    between atoms: _348  and  _349
REMARK  142  A    between atoms: _348  and  _351
REMARK  143  A    between atoms: _351  and  _352
REMARK  144  A    between atoms: _357  and  _358
REMARK  145  A    between atoms: _360  and  _362
REMARK  146  A    between atoms: _362  and  _363
REMARK  147  A    between atoms: _362  and  _365
REMARK  148  A    between atoms: _365  and  _366
REMARK  149  A    between atoms: _366  and  _367
REMARK  150  A    between atoms: _372  and  _374
REMARK  151  A    between atoms: _374  and  _375
REMARK  152  A    between atoms: _374  and  _377
REMARK  153  A    between atoms: _377  and  _378
REMARK  154  A    between atoms: _381  and  _383
REMARK  155  A    between atoms: _383  and  _384
REMARK  156  A    between atoms: _383  and  _386
REMARK  157  A    between atoms: _386  and  _387
REMARK  158  A    between atoms: _390  and  _392
REMARK  159  A    between atoms: _392  and  _393
REMARK  160  A    between atoms: _392  and  _395
REMARK  161  A    between atoms: _398  and  _400
REMARK  162  A    between atoms: _400  and  _401
REMARK  163  A    between atoms: _403  and  _405
REMARK  164  A    between atoms: _405  and  _406
REMARK  165  A    between atoms: _405  and  _408
REMARK  166  A    between atoms: _412  and  _413
REMARK  167  A    between atoms: _418  and  _420
REMARK  168  A    between atoms: _420  and  _421
REMARK  169  A    between atoms: _420  and  _423
REMARK  170  A    between atoms: _423  and  _424
REMARK  171  A    between atoms: _427  and  _429
REMARK  172  A    between atoms: _429  and  _430
REMARK  173  A    between atoms: _429  and  _432
REMARK  174  A    between atoms: _435  and  _437
REMARK  175  A    between atoms: _437  and  _438
REMARK  176  A    between atoms: _437  and  _440
REMARK  177  A    between atoms: _440  and  _441
REMARK  178  A    between atoms: _441  and  _442
REMARK  179  A    between atoms: _442  and  _443
REMARK  180  A    between atoms: _452  and  _454
REMARK  181  A    between atoms: _454  and  _455
REMARK  182  A    between atoms: _454  and  _457
REMARK  183  A    between atoms: _457  and  _458
REMARK  184  A    between atoms: _458  and  _459
REMARK  185  A    between atoms: _462  and  _464
REMARK  186  A    between atoms: _464  and  _465
REMARK  187  A    between atoms: _464  and  _467
REMARK  188  A    between atoms: _467  and  _468
REMARK  189  A    between atoms: _471  and  _473
REMARK  190  A    between atoms: _473  and  _474
REMARK  191  A    between atoms: _477  and  _479
REMARK  192  A    between atoms: _479  and  _480
REMARK  193  A    between atoms: _479  and  _482
REMARK  194  A    between atoms: _482  and  _483
REMARK  195  A    between atoms: _483  and  _484
REMARK  196  A    between atoms: _486  and  _488
REMARK  197  A    between atoms: _488  and  _489
REMARK  198  A    between atoms: _488  and  _491
REMARK  199  A    between atoms: _491  and  _492
REMARK  200  A    between atoms: _494  and  _496
REMARK  201  A    between atoms: _496  and  _497
REMARK  202  A    between atoms: _496  and  _499
REMARK  203  A    between atoms: _499  and  _500
REMARK  204  A    between atoms: _502  and  _504
REMARK  205  A    between atoms: _504  and  _505
REMARK  206  A    between atoms: _504  and  _507
REMARK  207  A    between atoms: _507  and  _508
REMARK  208  A    between atoms: _508  and  _509
REMARK  209  A    between atoms: _509  and  _510
REMARK  210  A    between atoms: _519  and  _521
REMARK  211  A    between atoms: _521  and  _522
REMARK  212  A    between atoms: _521  and  _524
REMARK  213  A    between atoms: _524  and  _525
REMARK  214  A    between atoms: _530  and  _532
REMARK  215  A    between atoms: _532  and  _533
REMARK  216  A    between atoms: _532  and  _535
REMARK  217  A    between atoms: _535  and  _536
REMARK  218  A    between atoms: _539  and  _541
REMARK  219  A    between atoms: _541  and  _542
REMARK  220  A    between atoms: _541  and  _544
REMARK  221  A    between atoms: _544  and  _545
REMARK                            x       y       z     vdW  Elec       q    Type
REMARK                         _______ _______ _______ _____ _____    ______ ____
ROOT
ATOM      1  C   HIS A   1      21.143   2.826  11.195  0.00  0.00    +0.239 C 
ATOM      2  O   HIS A   1      20.265   3.672  11.323  0.00  0.00    -0.274 OA
ATOM      3  N   PHE A   2      20.850   1.565  10.888  0.00  0.00    -0.298 N 
ATOM      4  H   PHE A   2      21.594   0.849  10.766  0.00  0.00    +0.150 HD
ENDROOT
BRANCH   1   5
ATOM      5  CA  HIS A   1      22.614   3.200  11.387  0.00  0.00    +0.151 C 
BRANCH   5   6
ATOM      6  N   HIS A   1      23.316   2.244  12.216  0.00  0.00    -0.238 NA
ATOM      7  H   HIS A   1      24.190   1.815  11.850  0.00  0.00    +0.142 HD
ENDBRANCH   5   6
BRANCH   5   8
ATOM      8  CB  HIS A   1      23.311   3.346  10.025  0.00  0.00    +0.074 C 
BRANCH   8   9
ATOM      9  CG  HIS A   1      22.500   4.103   9.019  0.00  0.00    +0.082 A 
ATOM     10  ND1 HIS A   1      22.524   5.479   8.931  0.00  0.00    -0.227 NA
ATOM     11  CE1 HIS A   1      21.678   5.865   7.990  0.00  0.00    +0.199 A 
ATOM     12  NE2 HIS A   1      21.103   4.788   7.479  0.00  0.00    -0.221 NA
ATOM     13  CD2 HIS A   1      21.610   3.677   8.094  0.00  0.00    +0.115 A 
ENDBRANCH   8   9
ENDBRANCH   5   8
ENDBRANCH   1   5
BRANCH   3  14
ATOM     14  CA  PHE A   2      19.435   1.231  10.729  0.00  0.00    +0.141 C 
BRANCH  14  15
ATOM     15  C   PHE A   2      18.643   1.228  12.023  0.00  0.00    +0.227 C 
ATOM     16  O   PHE A   2      17.421   1.527  12.021  0.00  0.00    -0.286 OA
ENDBRANCH  14  15
BRANCH  14  17
ATOM     17  CB  PHE A   2      19.228   0.002   9.857  0.00  0.00    +0.054 C 
BRANCH  17  18
ATOM     18  CG  PHE A   2      19.427   0.315   8.400  0.00  0.00    -0.020 A 
ATOM     19  CD2 PHE A   2      18.702   1.351   7.802  0.00  0.00    -0.004 A 
ATOM     20  CE2 PHE A   2      18.878   1.657   6.468  0.00  0.00    -0.000 A 
ATOM     21  CZ  PHE A   2      19.820   0.957   5.706  0.00  0.00    -0.000 A 
ATOM     22  CE1 PHE A   2      20.574  -0.023   6.279  0.00  0.00    -0.000 A 
ATOM     23  CD1 PHE A   2      20.377  -0.355   7.635  0.00  0.00    -0.004 A 
ENDBRANCH  17  18
ENDBRANCH  14  17
ENDBRANCH   3  14
TORSDOF 8
REMARK  Name = ../refined-set-2016/3ioc/3ioc_pocket.pdb
REMARK  221 active torsions:
REMARK  status: ('A' for Active; 'I' for Inactive)
REMARK    1  A    between atoms: _1  and  _3
REMARK    2  A    between atoms: _3  and  _4
REMARK    3  A    between atoms: _3  and  _6
REMARK    4  A    between atoms: _10  and  _11
REMARK    5  A    between atoms: _16  and  _18
REMARK    6  A    between atoms: _18  and  _19
REMARK    7  A    between atoms: _18  and  _21
REMARK    8  A    between atoms: _21  and  _22
REMARK    9  A    between atoms: _25  and  _27
REMARK   10  A    between atoms: _27  and  _28
REMARK   11  A    between atoms: _27  and  _30
REMARK   12  A    between atoms: _30  and  _31
REMARK   13  A    between atoms: _31  and  _32
REMARK   14  A    between atoms: _34  and  _36
REMARK   15  A    between atoms: _36  and  _37
REMARK   16  A    between atoms: _39  and  _41
REMARK   17  A    between atoms: _41  and  _42
REMARK   18  A    between atoms: _45  and  _47
REMARK   19  A    between atoms: _47  and  _48
REMARK   20  A    between atoms: _47  and  _50
REMARK   21  A    between atoms: _50  and  _51
REMARK   22  A    between atoms: _54  and  _56
REMARK   23  A    between atoms: _56  and  _57
REMARK   24  A    between atoms: _56  and  _59
REMARK   25  A    between atoms: _59  and  _60
REMARK   26  A    between atoms: _65  and  _67
REMARK   27  A    between atoms: _67  and  _68
REMARK   28  A    between atoms: _67  and  _70
REMARK   29  A    between atoms: _70  and  _71
REMARK   30  A    between atoms: _71  and  _72
REMARK   31  A    between atoms: _75  and  _77
REMARK   32  A    between atoms: _77  and  _78
REMARK   33  A    between atoms: _80  and  _82
REMARK   34  A    between atoms: _82  and  _83
REMARK   35  A    between atoms: _82  and  _85
REMARK   36  A    between atoms: _85  and  _86
REMARK   37  A    between atoms: _91  and  _93
REMARK   38  A    between atoms: _93  and  _94
REMARK   39  A    between atoms: _93  and  _96
REMARK   40  A    between atoms: _96  and  _97
REMARK   41  A    between atoms: _100  and  _102
REMARK   42  A    between atoms: _102  and  _103
REMARK   43  A    between atoms: _106  and  _108
REMARK   44  A    between atoms: _108  and  _109
REMARK   45  A    between atoms: _108  and  _111
REMARK   46  A    between atoms: _111  and  _112
REMARK   47  A    between atoms: _115  and  _117
REMARK   48  A    between atoms: _117  and  _118
REMARK   49  A    between atoms: _117  and  _120
REMARK   50  A    between atoms: _123  and  _125
REMARK   51  A    between atoms: _125  and  _126
REMARK   52  A    between atoms: _125  and  _128
REMARK   53  A    between atoms: _128  and  _129
REMARK   54  A    between atoms: _131  and  _133
REMARK   55  A    between atoms: _133  and  _134
REMARK   56  A    between atoms: _133  and  _136
REMARK   57  A    between atoms: _136  and  _137
REMARK   58  A    between atoms: _140  and  _142
REMARK   59  A    between atoms: _142  and  _143
REMARK   60  A    between atoms: _142  and  _145
REMARK   61  A    between atoms: _145  and  _146
REMARK   62  A    between atoms: _152  and  _154
REMARK   63  A    between atoms: _154  and  _155
REMARK   64  A    between atoms: _154  and  _157
REMARK   65  A    between atoms: _160  and  _162
REMARK   66  A    between atoms: _162  and  _163
REMARK   67  A    between atoms: _162  and  _165
REMARK   68  A    between atoms: _165  and  _166
REMARK   69  A    between atoms: _171  and  _173
REMARK   70  A    between atoms: _173  and  _174
REMARK   71  A    between atoms: _173  and  _176
REMARK   72  A    between atoms: _176  and  _177
REMARK   73  A    between atoms: _177  and  _178
REMARK   74  A    between atoms: _183  and  _185
REMARK   75  A    between atoms: _185  and  _186
REMARK   76  A    between atoms: _185  and  _188
REMARK   77  A    between atoms: _188  and  _189
REMARK   78  A    between atoms: _194  and  _195
REMARK   79  A    between atoms: _197  and  _199
REMARK   80  A    between atoms: _199  and  _200
REMARK   81  A    between atoms: _199  and  _202
REMARK   82  A    between atoms: _202  and  _203
REMARK   83  A    between atoms: _208  and  _210
REMARK   84  A    between atoms: _210  and  _211
REMARK   85  A    between atoms: _210  and  _213
REMARK   86  A    between atoms: _213  and  _214
REMARK   87  A    between atoms: _220  and  _222
REMARK   88  A    between atoms: _222  and  _223
REMARK   89  A    between atoms: _225  and  _227
REMARK   90  A    between atoms: _227  and  _228
REMARK   91  A    between atoms: _227  and  _230
REMARK   92  A    between atoms: _233  and  _235
REMARK   93  A    between atoms: _235  and  _236
REMARK   94  A    between atoms: _235  and  _238
REMARK   95  A    between atoms: _238  and  _239
REMARK   96  A    between atoms: _242  and  _244
REMARK   97  A    between atoms: _244  and  _245
REMARK   98  A    between atoms: _244  and  _247
REMARK   99  A    between atoms: _247  and  _248
REMARK  100  A    between atoms: _251  and  _253
REMARK  101  A    between atoms: _253  and  _254
REMARK  102  A    between atoms: _253  and  _256
REMARK  103  A    between atoms: _259  and  _261
REMARK  104  A    between atoms: _261  and  _262
REMARK  105  A    between atoms: _261  and  _264
REMARK  106  A    between atoms: _267  and  _269
REMARK  107  A    between atoms: _269  and  _270
REMARK  108  A    between atoms: _269  and  _272
REMARK  109  A    between atoms: _272  and  _273
REMARK  110  A    between atoms: _276  and  _278
REMARK  111  A    between atoms: _278  and  _279
REMARK  112  A    between atoms: _278  and  _281
REMARK  113  A    between atoms: _281  and  _282
REMARK  114  A    between atoms: _285  and  _287
REMARK  115  A    between atoms: _287  and  _288
REMARK  116  A    between atoms: _287  and  _290
REMARK  117  A    between atoms: _290  and  _291
REMARK  118  A    between atoms: _297  and  _299
REMARK  119  A    between atoms: _299  and  _300
REMARK  120  A    between atoms: _299  and  _302
REMARK  121  A    between atoms: _302  and  _303
REMARK  122  A    between atoms: _309  and  _311
REMARK  123  A    between atoms: _311  and  _312
REMARK  124  A    between atoms: _314  and  _316
REMARK  125  A    between atoms: _316  and  _317
REMARK  126  A    between atoms: _316  and  _319
REMARK  127  A    between atoms: _319  and  _320
REMARK  128  A    between atoms: _320  and  _321
REMARK  129  A    between atoms: _324  and  _326
REMARK  130  A    between atoms: _326  and  _327
REMARK  131  A    between atoms: _326  and  _329
REMARK  132  A    between atoms: _329  and  _330
REMARK  133  A    between atoms: _330  and  _331
REMARK  134  A    between atoms: _331  and  _332
REMARK  135  A    between atoms: _332  and  _333
REMARK  136  A    between atoms: _337  and  _339
REMARK  137  A    between atoms: _339  and  _340
REMARK  138  A    between atoms: _339  and  _342
REMARK  139  A    between atoms: _342  and  _343
REMARK  140  A    between atoms: _346  and  _348
REMARK  141  A    between atoms: _348  and  _349
REMARK  142  A    between atoms: _348  and  _351
REMARK  143  A    between atoms: _351  and  _352
REMARK  144  A    between atoms: _357  and  _358
REMARK  145  A    between atoms: _360  and  _362
REMARK  146  A    between atoms: _362  and  _363
REMARK  147  A    between atoms: _362  and  _365
REMARK  148  A    between atoms: _365  and  _366
REMARK  149  A    between atoms: _366  and  _367
REMARK  150  A    between atoms: _372  and  _374
REMARK  151  A    between atoms: _374  and  _375
REMARK  152  A    between atoms: _374  and  _377
REMARK  153  A    between atoms: _377  and  _378
REMARK  154  A    between atoms: _381  and  _383
REMARK  155  A    between atoms: _383  and  _384
REMARK  156  A    between atoms: _383  and  _386
REMARK  157  A    between atoms: _386  and  _387
REMARK  158  A    between atoms: _390  and  _392
REMARK  159  A    between atoms: _392  and  _393
REMARK  160  A    between atoms: _392  and  _395
REMARK  161  A    between atoms: _398  and  _400
REMARK  162  A    between atoms: _400  and  _401
REMARK  163  A    between atoms: _403  and  _405
REMARK  164  A    between atoms: _405  and  _406
REMARK  165  A    between atoms: _405  and  _408
REMARK  166  A    between atoms: _412  and  _413
REMARK  167  A    between atoms: _418  and  _420
REMARK  168  A    between atoms: _420  and  _421
REMARK  169  A    between atoms: _420  and  _423
REMARK  170  A    between atoms: _423  and  _424
REMARK  171  A    between atoms: _427  and  _429
REMARK  172  A    between atoms: _429  and  _430
REMARK  173  A    between atoms: _429  and  _432
REMARK  174  A    between atoms: _435  and  _437
REMARK  175  A    between atoms: _437  and  _438
REMARK  176  A    between atoms: _437  and  _440
REMARK  177  A    between atoms: _440  and  _441
REMARK  178  A    between atoms: _441  and  _442
REMARK  179  A    between atoms: _442  and  _443
REMARK  180  A    between atoms: _452  and  _454
REMARK  181  A    between atoms: _454  and  _455
REMARK  182  A    between atoms: _454  and  _457
REMARK  183  A    between atoms: _457  and  _458
REMARK  184  A    between atoms: _458  and  _459
REMARK  185  A    between atoms: _462  and  _464
REMARK  186  A    between atoms: _464  and  _465
REMARK  187  A    between atoms: _464  and  _467
REMARK  188  A    between atoms: _467  and  _468
REMARK  189  A    between atoms: _471  and  _473
REMARK  190  A    between atoms: _473  and  _474
REMARK  191  A    between atoms: _477  and  _479
REMARK  192  A    between atoms: _479  and  _480
REMARK  193  A    between atoms: _479  and  _482
REMARK  194  A    between atoms: _482  and  _483
REMARK  195  A    between atoms: _483  and  _484
REMARK  196  A    between atoms: _486  and  _488
REMARK  197  A    between atoms: _488  and  _489
REMARK  198  A    between atoms: _488  and  _491
REMARK  199  A    between atoms: _491  and  _492
REMARK  200  A    between atoms: _494  and  _496
REMARK  201  A    between atoms: _496  and  _497
REMARK  202  A    between atoms: _496  and  _499
REMARK  203  A    between atoms: _499  and  _500
REMARK  204  A    between atoms: _502  and  _504
REMARK  205  A    between atoms: _504  and  _505
REMARK  206  A    between atoms: _504  and  _507
REMARK  207  A    between atoms: _507  and  _508
REMARK  208  A    between atoms: _508  and  _509
REMARK  209  A    between atoms: _509  and  _510
REMARK  210  A    between atoms: _519  and  _521
REMARK  211  A    between atoms: _521  and  _522
REMARK  212  A    between atoms: _521  and  _524
REMARK  213  A    between atoms: _524  and  _525
REMARK  214  A    between atoms: _530  and  _532
REMARK  215  A    between atoms: _532  and  _533
REMARK  216  A    between atoms: _532  and  _535
REMARK  217  A    between atoms: _535  and  _536
REMARK  218  A    between atoms: _539  and  _541
REMARK  219  A    between atoms: _541  and  _542
REMARK  220  A    between atoms: _541  and  _544
REMARK  221  A    between atoms: _544  and  _545
REMARK                            x       y       z     vdW  Elec       q    Type
REMARK                         _______ _______ _______ _____ _____    ______ ____
ROOT
ATOM      1  CA  THR A   4      13.758   4.119  15.967  0.00  0.00    +0.176 C 
ENDROOT
BRANCH   1   3
ATOM      2  C   LEU A   3      13.296   3.206  13.740  0.00  0.00    +0.241 C 
ATOM      3  N   THR A   4      14.183   3.577  14.659  0.00  0.00    -0.295 N 
ATOM      4  H   THR A   4      15.198   3.484  14.453  0.00  0.00    +0.150 HD
ATOM      5  O   LEU A   3      12.043   3.224  13.942  0.00  0.00    -0.273 OA
BRANCH   2   6
ATOM      6  CA  LEU A   3      13.897   2.660  12.420  0.00  0.00    +0.149 C 
BRANCH   6   8
ATOM      7  C   VAL A   2      15.272   4.595  11.786  0.00  0.00    +0.241 C 
ATOM      8  N   LEU A   3      15.164   3.295  12.037  0.00  0.00    -0.297 N 
ATOM      9  H   LEU A   3      16.014   2.701  11.959  0.00  0.00    +0.150 HD
ATOM     10  O   VAL A   2      14.298   5.370  11.871  0.00  0.00    -0.273 OA
BRANCH   7  11
ATOM     11  CA  VAL A   2      16.704   5.107  11.400  0.00  0.00    +0.148 C 
BRANCH  11  14
ATOM     12  C   GLY A   1      17.723   5.192  13.611  0.00  0.00    +0.240 C 
ATOM     13  O   GLY A   1      16.785   5.803  14.093  0.00  0.00    -0.274 OA
ATOM     14  N   VAL A   2      17.744   4.751  12.356  0.00  0.00    -0.297 N 
ATOM     15  H   VAL A   2      18.524   4.135  12.049  0.00  0.00    +0.150 HD
BRANCH  12  16
ATOM     16  CA  GLY A   1      18.898   4.841  14.464  0.00  0.00    +0.169 C 
BRANCH  16  17
ATOM     17  N   GLY A   1      19.160   3.418  14.441  0.00  0.00    -0.236 NA
ATOM     18  H   GLY A   1      20.132   3.098  14.256  0.00  0.00    +0.142 HD
ENDBRANCH  16  17
ENDBRANCH  12  16
ENDBRANCH  11  14
BRANCH  11  19
ATOM     19  CB  VAL A   2      17.148   4.600  10.012  0.00  0.00    +0.027 C 
ATOM     20  CG2 VAL A   2      18.264   5.487   9.497  0.00  0.00    +0.002 C 
ATOM     21  CG1 VAL A   2      16.003   4.585   9.020  0.00  0.00    +0.002 C 
ENDBRANCH  11  19
ENDBRANCH   7  11
ENDBRANCH   6   8
BRANCH   6  22
ATOM     22  CB  LEU A   3      14.081   1.132  12.578  0.00  0.00    +0.029 C 
BRANCH  22  23
ATOM     23  CG  LEU A   3      14.484   0.166  11.459  0.00  0.00    +0.002 C 
ATOM     24  CD2 LEU A   3      13.885  -1.307  11.612  0.00  0.00    +0.000 C 
ATOM     25  CD1 LEU A   3      14.050   0.759  10.200  0.00  0.00    +0.000 C 
ENDBRANCH  22  23
ENDBRANCH   6  22
ENDBRANCH   2   6
ENDBRANCH   1   3
BRANCH   1  26
ATOM     26  C   THR A   4      13.009   5.470  15.694  0.00  0.00    +0.243 C 
ATOM     27  O   THR A   4      11.875   5.673  16.147  0.00  0.00    -0.273 OA
ATOM     28  N   VAL A   5      13.608   6.355  14.884  0.00  0.00    -0.297 N 
ATOM     29  H   VAL A   5      14.515   6.122  14.433  0.00  0.00    +0.150 HD
BRANCH  28  30
ATOM     30  CA  VAL A   5      12.988   7.625  14.645  0.00  0.00    +0.149 C 
BRANCH  30  31
ATOM     31  C   VAL A   5      11.719   7.435  13.800  0.00  0.00    +0.241 C 
ATOM     32  O   VAL A   5      10.686   8.107  14.016  0.00  0.00    -0.273 OA
ATOM     33  N   VAL A   6      11.729   6.450  12.905  0.00  0.00    -0.297 N 
ATOM     34  H   VAL A   6      12.560   5.834  12.794  0.00  0.00    +0.150 HD
BRANCH  33  35
ATOM     35  CA  VAL A   6      10.555   6.264  12.096  0.00  0.00    +0.149 C 
BRANCH  35  36
ATOM     36  C   VAL A   6       9.418   5.705  12.923  0.00  0.00    +0.241 C 
ATOM     37  N   LEU A   7       9.774   4.918  13.918  0.00  0.00    -0.298 N 
ATOM     38  H   LEU A   7      10.767   4.644  14.060  0.00  0.00    +0.150 HD
ATOM     39  O   VAL A   6       8.218   5.968  12.690  0.00  0.00    -0.273 OA
BRANCH  37  40
ATOM     40  CA  LEU A   7       8.730   4.448  14.807  0.00  0.00    +0.137 C 
BRANCH  40  41
ATOM     41  C   LEU A   7       8.143   5.613  15.599  0.00  0.00    +0.227 C 
ATOM     42  O   LEU A   7       6.955   5.764  15.646  0.00  0.00    -0.286 OA
ENDBRANCH  40  41
BRANCH  40  43
ATOM     43  CB  LEU A   7       9.261   3.404  15.737  0.00  0.00    +0.028 C 
BRANCH  43  44
ATOM     44  CG  LEU A   7       8.187   2.915  16.685  0.00  0.00    +0.002 C 
ATOM     45  CD2 LEU A   7       8.816   1.823  17.435  0.00  0.00    +0.000 C 
ATOM     46  CD1 LEU A   7       7.034   2.423  15.887  0.00  0.00    +0.000 C 
ENDBRANCH  43  44
ENDBRANCH  40  43
ENDBRANCH  37  40
ENDBRANCH  35  36
BRANCH  35  47
ATOM     47  CB  VAL A   6      10.860   5.493  10.820  0.00  0.00    +0.027 C 
ATOM     48  CG2 VAL A   6       9.541   5.082  10.016  0.00  0.00    +0.002 C 
ATOM     49  CG1 VAL A   6      11.682   6.369   9.945  0.00  0.00    +0.002 C 
ENDBRANCH  35  47
ENDBRANCH  33  35
ENDBRANCH  30  31
BRANCH  30  50
ATOM     50  CB  VAL A   5      14.025   8.656  14.130  0.00  0.00    +0.027 C 
ATOM     51  CG2 VAL A   5      13.655  10.071  14.587  0.00  0.00    +0.002 C 
ATOM     52  CG1 VAL A   5      14.153   8.615  12.642  0.00  0.00    +0.002 C 
ENDBRANCH  30  50
ENDBRANCH  28  30
ENDBRANCH   1  26
BRANCH   1  53
ATOM     53  CB  THR A   4      14.998   4.324  16.934  0.00  0.00    +0.137 C 
ATOM     54  CG2 THR A   4      14.562   5.086  18.111  0.00  0.00    +0.034 C 
BRANCH  53  55
ATOM     55  OG1 THR A   4      15.538   3.053  17.369  0.00  0.00    -0.382 OA
ATOM     56  HG1 THR A   4      15.835   2.534  16.580  0.00  0.00    +0.210 HD
ENDBRANCH  53  55
ENDBRANCH   1  53
TORSDOF 23
REMARK  Name = ../refined-set-2016/3ioc/3ioc_pocket.pdb
REMARK  221 active torsions:
REMARK  status: ('A' for Active; 'I' for Inactive)
REMARK    1  A    between atoms: _1  and  _3
REMARK    2  A    between atoms: _3  and  _4
REMARK    3  A    between atoms: _3  and  _6
REMARK    4  A    between atoms: _10  and  _11
REMARK    5  A    between atoms: _16  and  _18
REMARK    6  A    between atoms: _18  and  _19
REMARK    7  A    between atoms: _18  and  _21
REMARK    8  A    between atoms: _21  and  _22
REMARK    9  A    between atoms: _25  and  _27
REMARK   10  A    between atoms: _27  and  _28
REMARK   11  A    between atoms: _27  and  _30
REMARK   12  A    between atoms: _30  and  _31
REMARK   13  A    between atoms: _31  and  _32
REMARK   14  A    between atoms: _34  and  _36
REMARK   15  A    between atoms: _36  and  _37
REMARK   16  A    between atoms: _39  and  _41
REMARK   17  A    between atoms: _41  and  _42
REMARK   18  A    between atoms: _45  and  _47
REMARK   19  A    between atoms: _47  and  _48
REMARK   20  A    between atoms: _47  and  _50
REMARK   21  A    between atoms: _50  and  _51
REMARK   22  A    between atoms: _54  and  _56
REMARK   23  A    between atoms: _56  and  _57
REMARK   24  A    between atoms: _56  and  _59
REMARK   25  A    between atoms: _59  and  _60
REMARK   26  A    between atoms: _65  and  _67
REMARK   27  A    between atoms: _67  and  _68
REMARK   28  A    between atoms: _67  and  _70
REMARK   29  A    between atoms: _70  and  _71
REMARK   30  A    between atoms: _71  and  _72
REMARK   31  A    between atoms: _75  and  _77
REMARK   32  A    between atoms: _77  and  _78
REMARK   33  A    between atoms: _80  and  _82
REMARK   34  A    between atoms: _82  and  _83
REMARK   35  A    between atoms: _82  and  _85
REMARK   36  A    between atoms: _85  and  _86
REMARK   37  A    between atoms: _91  and  _93
REMARK   38  A    between atoms: _93  and  _94
REMARK   39  A    between atoms: _93  and  _96
REMARK   40  A    between atoms: _96  and  _97
REMARK   41  A    between atoms: _100  and  _102
REMARK   42  A    between atoms: _102  and  _103
REMARK   43  A    between atoms: _106  and  _108
REMARK   44  A    between atoms: _108  and  _109
REMARK   45  A    between atoms: _108  and  _111
REMARK   46  A    between atoms: _111  and  _112
REMARK   47  A    between atoms: _115  and  _117
REMARK   48  A    between atoms: _117  and  _118
REMARK   49  A    between atoms: _117  and  _120
REMARK   50  A    between atoms: _123  and  _125
REMARK   51  A    between atoms: _125  and  _126
REMARK   52  A    between atoms: _125  and  _128
REMARK   53  A    between atoms: _128  and  _129
REMARK   54  A    between atoms: _131  and  _133
REMARK   55  A    between atoms: _133  and  _134
REMARK   56  A    between atoms: _133  and  _136
REMARK   57  A    between atoms: _136  and  _137
REMARK   58  A    between atoms: _140  and  _142
REMARK   59  A    between atoms: _142  and  _143
REMARK   60  A    between atoms: _142  and  _145
REMARK   61  A    between atoms: _145  and  _146
REMARK   62  A    between atoms: _152  and  _154
REMARK   63  A    between atoms: _154  and  _155
REMARK   64  A    between atoms: _154  and  _157
REMARK   65  A    between atoms: _160  and  _162
REMARK   66  A    between atoms: _162  and  _163
REMARK   67  A    between atoms: _162  and  _165
REMARK   68  A    between atoms: _165  and  _166
REMARK   69  A    between atoms: _171  and  _173
REMARK   70  A    between atoms: _173  and  _174
REMARK   71  A    between atoms: _173  and  _176
REMARK   72  A    between atoms: _176  and  _177
REMARK   73  A    between atoms: _177  and  _178
REMARK   74  A    between atoms: _183  and  _185
REMARK   75  A    between atoms: _185  and  _186
REMARK   76  A    between atoms: _185  and  _188
REMARK   77  A    between atoms: _188  and  _189
REMARK   78  A    between atoms: _194  and  _195
REMARK   79  A    between atoms: _197  and  _199
REMARK   80  A    between atoms: _199  and  _200
REMARK   81  A    between atoms: _199  and  _202
REMARK   82  A    between atoms: _202  and  _203
REMARK   83  A    between atoms: _208  and  _210
REMARK   84  A    between atoms: _210  and  _211
REMARK   85  A    between atoms: _210  and  _213
REMARK   86  A    between atoms: _213  and  _214
REMARK   87  A    between atoms: _220  and  _222
REMARK   88  A    between atoms: _222  and  _223
REMARK   89  A    between atoms: _225  and  _227
REMARK   90  A    between atoms: _227  and  _228
REMARK   91  A    between atoms: _227  and  _230
REMARK   92  A    between atoms: _233  and  _235
REMARK   93  A    between atoms: _235  and  _236
REMARK   94  A    between atoms: _235  and  _238
REMARK   95  A    between atoms: _238  and  _239
REMARK   96  A    between atoms: _242  and  _244
REMARK   97  A    between atoms: _244  and  _245
REMARK   98  A    between atoms: _244  and  _247
REMARK   99  A    between atoms: _247  and  _248
REMARK  100  A    between atoms: _251  and  _253
REMARK  101  A    between atoms: _253  and  _254
REMARK  102  A    between atoms: _253  and  _256
REMARK  103  A    between atoms: _259  and  _261
REMARK  104  A    between atoms: _261  and  _262
REMARK  105  A    between atoms: _261  and  _264
REMARK  106  A    between atoms: _267  and  _269
REMARK  107  A    between atoms: _269  and  _270
REMARK  108  A    between atoms: _269  and  _272
REMARK  109  A    between atoms: _272  and  _273
REMARK  110  A    between atoms: _276  and  _278
REMARK  111  A    between atoms: _278  and  _279
REMARK  112  A    between atoms: _278  and  _281
REMARK  113  A    between atoms: _281  and  _282
REMARK  114  A    between atoms: _285  and  _287
REMARK  115  A    between atoms: _287  and  _288
REMARK  116  A    between atoms: _287  and  _290
REMARK  117  A    between atoms: _290  and  _291
REMARK  118  A    between atoms: _297  and  _299
REMARK  119  A    between atoms: _299  and  _300
REMARK  120  A    between atoms: _299  and  _302
REMARK  121  A    between atoms: _302  and  _303
REMARK  122  A    between atoms: _309  and  _311
REMARK  123  A    between atoms: _311  and  _312
REMARK  124  A    between atoms: _314  and  _316
REMARK  125  A    between atoms: _316  and  _317
REMARK  126  A    between atoms: _316  and  _319
REMARK  127  A    between atoms: _319  and  _320
REMARK  128  A    between atoms: _320  and  _321
REMARK  129  A    between atoms: _324  and  _326
REMARK  130  A    between atoms: _326  and  _327
REMARK  131  A    between atoms: _326  and  _329
REMARK  132  A    between atoms: _329  and  _330
REMARK  133  A    between atoms: _330  and  _331
REMARK  134  A    between atoms: _331  and  _332
REMARK  135  A    between atoms: _332  and  _333
REMARK  136  A    between atoms: _337  and  _339
REMARK  137  A    between atoms: _339  and  _340
REMARK  138  A    between atoms: _339  and  _342
REMARK  139  A    between atoms: _342  and  _343
REMARK  140  A    between atoms: _346  and  _348
REMARK  141  A    between atoms: _348  and  _349
REMARK  142  A    between atoms: _348  and  _351
REMARK  143  A    between atoms: _351  and  _352
REMARK  144  A    between atoms: _357  and  _358
REMARK  145  A    between atoms: _360  and  _362
REMARK  146  A    between atoms: _362  and  _363
REMARK  147  A    between atoms: _362  and  _365
REMARK  148  A    between atoms: _365  and  _366
REMARK  149  A    between atoms: _366  and  _367
REMARK  150  A    between atoms: _372  and  _374
REMARK  151  A    between atoms: _374  and  _375
REMARK  152  A    between atoms: _374  and  _377
REMARK  153  A    between atoms: _377  and  _378
REMARK  154  A    between atoms: _381  and  _383
REMARK  155  A    between atoms: _383  and  _384
REMARK  156  A    between atoms: _383  and  _386
REMARK  157  A    between atoms: _386  and  _387
REMARK  158  A    between atoms: _390  and  _392
REMARK  159  A    between atoms: _392  and  _393
REMARK  160  A    between atoms: _392  and  _395
REMARK  161  A    between atoms: _398  and  _400
REMARK  162  A    between atoms: _400  and  _401
REMARK  163  A    between atoms: _403  and  _405
REMARK  164  A    between atoms: _405  and  _406
REMARK  165  A    between atoms: _405  and  _408
REMARK  166  A    between atoms: _412  and  _413
REMARK  167  A    between atoms: _418  and  _420
REMARK  168  A    between atoms: _420  and  _421
REMARK  169  A    between atoms: _420  and  _423
REMARK  170  A    between atoms: _423  and  _424
REMARK  171  A    between atoms: _427  and  _429
REMARK  172  A    between atoms: _429  and  _430
REMARK  173  A    between atoms: _429  and  _432
REMARK  174  A    between atoms: _435  and  _437
REMARK  175  A    between atoms: _437  and  _438
REMARK  176  A    between atoms: _437  and  _440
REMARK  177  A    between atoms: _440  and  _441
REMARK  178  A    between atoms: _441  and  _442
REMARK  179  A    between atoms: _442  and  _443
REMARK  180  A    between atoms: _452  and  _454
REMARK  181  A    between atoms: _454  and  _455
REMARK  182  A    between atoms: _454  and  _457
REMARK  183  A    between atoms: _457  and  _458
REMARK  184  A    between atoms: _458  and  _459
REMARK  185  A    between atoms: _462  and  _464
REMARK  186  A    between atoms: _464  and  _465
REMARK  187  A    between atoms: _464  and  _467
REMARK  188  A    between atoms: _467  and  _468
REMARK  189  A    between atoms: _471  and  _473
REMARK  190  A    between atoms: _473  and  _474
REMARK  191  A    between atoms: _477  and  _479
REMARK  192  A    between atoms: _479  and  _480
REMARK  193  A    between atoms: _479  and  _482
REMARK  194  A    between atoms: _482  and  _483
REMARK  195  A    between atoms: _483  and  _484
REMARK  196  A    between atoms: _486  and  _488
REMARK  197  A    between atoms: _488  and  _489
REMARK  198  A    between atoms: _488  and  _491
REMARK  199  A    between atoms: _491  and  _492
REMARK  200  A    between atoms: _494  and  _496
REMARK  201  A    between atoms: _496  and  _497
REMARK  202  A    between atoms: _496  and  _499
REMARK  203  A    between atoms: _499  and  _500
REMARK  204  A    between atoms: _502  and  _504
REMARK  205  A    between atoms: _504  and  _505
REMARK  206  A    between atoms: _504  and  _507
REMARK  207  A    between atoms: _507  and  _508
REMARK  208  A    between atoms: _508  and  _509
REMARK  209  A    between atoms: _509  and  _510
REMARK  210  A    between atoms: _519  and  _521
REMARK  211  A    between atoms: _521  and  _522
REMARK  212  A    between atoms: _521  and  _524
REMARK  213  A    between atoms: _524  and  _525
REMARK  214  A    between atoms: _530  and  _532
REMARK  215  A    between atoms: _532  and  _533
REMARK  216  A    between atoms: _532  and  _535
REMARK  217  A    between atoms: _535  and  _536
REMARK  218  A    between atoms: _539  and  _541
REMARK  219  A    between atoms: _541  and  _542
REMARK  220  A    between atoms: _541  and  _544
REMARK  221  A    between atoms: _544  and  _545
REMARK                            x       y       z     vdW  Elec       q    Type
REMARK                         _______ _______ _______ _____ _____    ______ ____
ROOT
ATOM      1  CA  LEU A   1       7.334   9.689  13.853  0.00  0.00    +0.133 C 
ENDROOT
BRANCH   1   2
ATOM      2  N   LEU A   1       8.116   8.863  14.770  0.00  0.00    -0.239 NA
ATOM      3  H   LEU A   1       9.033   8.474  14.470  0.00  0.00    +0.142 HD
ENDBRANCH   1   2
BRANCH   1   4
ATOM      4  C   LEU A   1       5.956   9.089  13.585  0.00  0.00    +0.224 C 
ATOM      5  O   LEU A   1       4.940   9.802  13.550  0.00  0.00    -0.287 OA
ENDBRANCH   1   4
BRANCH   1   6
ATOM      6  CB  LEU A   1       8.120   9.931  12.565  0.00  0.00    +0.025 C 
BRANCH   6   7
ATOM      7  CG  LEU A   1       9.341  10.820  12.925  0.00  0.00    +0.002 C 
ATOM      8  CD2 LEU A   1       9.003  12.245  13.163  0.00  0.00    +0.000 C 
ATOM      9  CD1 LEU A   1      10.390  10.753  11.879  0.00  0.00    +0.000 C 
ENDBRANCH   6   7
ENDBRANCH   1   6
TORSDOF 4
REMARK  Name = ../refined-set-2016/3ioc/3ioc_pocket.pdb
REMARK  221 active torsions:
REMARK  status: ('A' for Active; 'I' for Inactive)
REMARK    1  A    between atoms: _1  and  _3
REMARK    2  A    between atoms: _3  and  _4
REMARK    3  A    between atoms: _3  and  _6
REMARK    4  A    between atoms: _10  and  _11
REMARK    5  A    between atoms: _16  and  _18
REMARK    6  A    between atoms: _18  and  _19
REMARK    7  A    between atoms: _18  and  _21
REMARK    8  A    between atoms: _21  and  _22
REMARK    9  A    between atoms: _25  and  _27
REMARK   10  A    between atoms: _27  and  _28
REMARK   11  A    between atoms: _27  and  _30
REMARK   12  A    between atoms: _30  and  _31
REMARK   13  A    between atoms: _31  and  _32
REMARK   14  A    between atoms: _34  and  _36
REMARK   15  A    between atoms: _36  and  _37
REMARK   16  A    between atoms: _39  and  _41
REMARK   17  A    between atoms: _41  and  _42
REMARK   18  A    between atoms: _45  and  _47
REMARK   19  A    between atoms: _47  and  _48
REMARK   20  A    between atoms: _47  and  _50
REMARK   21  A    between atoms: _50  and  _51
REMARK   22  A    between atoms: _54  and  _56
REMARK   23  A    between atoms: _56  and  _57
REMARK   24  A    between atoms: _56  and  _59
REMARK   25  A    between atoms: _59  and  _60
REMARK   26  A    between atoms: _65  and  _67
REMARK   27  A    between atoms: _67  and  _68
REMARK   28  A    between atoms: _67  and  _70
REMARK   29  A    between atoms: _70  and  _71
REMARK   30  A    between atoms: _71  and  _72
REMARK   31  A    between atoms: _75  and  _77
REMARK   32  A    between atoms: _77  and  _78
REMARK   33  A    between atoms: _80  and  _82
REMARK   34  A    between atoms: _82  and  _83
REMARK   35  A    between atoms: _82  and  _85
REMARK   36  A    between atoms: _85  and  _86
REMARK   37  A    between atoms: _91  and  _93
REMARK   38  A    between atoms: _93  and  _94
REMARK   39  A    between atoms: _93  and  _96
REMARK   40  A    between atoms: _96  and  _97
REMARK   41  A    between atoms: _100  and  _102
REMARK   42  A    between atoms: _102  and  _103
REMARK   43  A    between atoms: _106  and  _108
REMARK   44  A    between atoms: _108  and  _109
REMARK   45  A    between atoms: _108  and  _111
REMARK   46  A    between atoms: _111  and  _112
REMARK   47  A    between atoms: _115  and  _117
REMARK   48  A    between atoms: _117  and  _118
REMARK   49  A    between atoms: _117  and  _120
REMARK   50  A    between atoms: _123  and  _125
REMARK   51  A    between atoms: _125  and  _126
REMARK   52  A    between atoms: _125  and  _128
REMARK   53  A    between atoms: _128  and  _129
REMARK   54  A    between atoms: _131  and  _133
REMARK   55  A    between atoms: _133  and  _134
REMARK   56  A    between atoms: _133  and  _136
REMARK   57  A    between atoms: _136  and  _137
REMARK   58  A    between atoms: _140  and  _142
REMARK   59  A    between atoms: _142  and  _143
REMARK   60  A    between atoms: _142  and  _145
REMARK   61  A    between atoms: _145  and  _146
REMARK   62  A    between atoms: _152  and  _154
REMARK   63  A    between atoms: _154  and  _155
REMARK   64  A    between atoms: _154  and  _157
REMARK   65  A    between atoms: _160  and  _162
REMARK   66  A    between atoms: _162  and  _163
REMARK   67  A    between atoms: _162  and  _165
REMARK   68  A    between atoms: _165  and  _166
REMARK   69  A    between atoms: _171  and  _173
REMARK   70  A    between atoms: _173  and  _174
REMARK   71  A    between atoms: _173  and  _176
REMARK   72  A    between atoms: _176  and  _177
REMARK   73  A    between atoms: _177  and  _178
REMARK   74  A    between atoms: _183  and  _185
REMARK   75  A    between atoms: _185  and  _186
REMARK   76  A    between atoms: _185  and  _188
REMARK   77  A    between atoms: _188  and  _189
REMARK   78  A    between atoms: _194  and  _195
REMARK   79  A    between atoms: _197  and  _199
REMARK   80  A    between atoms: _199  and  _200
REMARK   81  A    between atoms: _199  and  _202
REMARK   82  A    between atoms: _202  and  _203
REMARK   83  A    between atoms: _208  and  _210
REMARK   84  A    between atoms: _210  and  _211
REMARK   85  A    between atoms: _210  and  _213
REMARK   86  A    between atoms: _213  and  _214
REMARK   87  A    between atoms: _220  and  _222
REMARK   88  A    between atoms: _222  and  _223
REMARK   89  A    between atoms: _225  and  _227
REMARK   90  A    between atoms: _227  and  _228
REMARK   91  A    between atoms: _227  and  _230
REMARK   92  A    between atoms: _233  and  _235
REMARK   93  A    between atoms: _235  and  _236
REMARK   94  A    between atoms: _235  and  _238
REMARK   95  A    between atoms: _238  and  _239
REMARK   96  A    between atoms: _242  and  _244
REMARK   97  A    between atoms: _244  and  _245
REMARK   98  A    between atoms: _244  and  _247
REMARK   99  A    between atoms: _247  and  _248
REMARK  100  A    between atoms: _251  and  _253
REMARK  101  A    between atoms: _253  and  _254
REMARK  102  A    between atoms: _253  and  _256
REMARK  103  A    between atoms: _259  and  _261
REMARK  104  A    between atoms: _261  and  _262
REMARK  105  A    between atoms: _261  and  _264
REMARK  106  A    between atoms: _267  and  _269
REMARK  107  A    between atoms: _269  and  _270
REMARK  108  A    between atoms: _269  and  _272
REMARK  109  A    between atoms: _272  and  _273
REMARK  110  A    between atoms: _276  and  _278
REMARK  111  A    between atoms: _278  and  _279
REMARK  112  A    between atoms: _278  and  _281
REMARK  113  A    between atoms: _281  and  _282
REMARK  114  A    between atoms: _285  and  _287
REMARK  115  A    between atoms: _287  and  _288
REMARK  116  A    between atoms: _287  and  _290
REMARK  117  A    between atoms: _290  and  _291
REMARK  118  A    between atoms: _297  and  _299
REMARK  119  A    between atoms: _299  and  _300
REMARK  120  A    between atoms: _299  and  _302
REMARK  121  A    between atoms: _302  and  _303
REMARK  122  A    between atoms: _309  and  _311
REMARK  123  A    between atoms: _311  and  _312
REMARK  124  A    between atoms: _314  and  _316
REMARK  125  A    between atoms: _316  and  _317
REMARK  126  A    between atoms: _316  and  _319
REMARK  127  A    between atoms: _319  and  _320
REMARK  128  A    between atoms: _320  and  _321
REMARK  129  A    between atoms: _324  and  _326
REMARK  130  A    between atoms: _326  and  _327
REMARK  131  A    between atoms: _326  and  _329
REMARK  132  A    between atoms: _329  and  _330
REMARK  133  A    between atoms: _330  and  _331
REMARK  134  A    between atoms: _331  and  _332
REMARK  135  A    between atoms: _332  and  _333
REMARK  136  A    between atoms: _337  and  _339
REMARK  137  A    between atoms: _339  and  _340
REMARK  138  A    between atoms: _339  and  _342
REMARK  139  A    between atoms: _342  and  _343
REMARK  140  A    between atoms: _346  and  _348
REMARK  141  A    between atoms: _348  and  _349
REMARK  142  A    between atoms: _348  and  _351
REMARK  143  A    between atoms: _351  and  _352
REMARK  144  A    between atoms: _357  and  _358
REMARK  145  A    between atoms: _360  and  _362
REMARK  146  A    between atoms: _362  and  _363
REMARK  147  A    between atoms: _362  and  _365
REMARK  148  A    between atoms: _365  and  _366
REMARK  149  A    between atoms: _366  and  _367
REMARK  150  A    between atoms: _372  and  _374
REMARK  151  A    between atoms: _374  and  _375
REMARK  152  A    between atoms: _374  and  _377
REMARK  153  A    between atoms: _377  and  _378
REMARK  154  A    between atoms: _381  and  _383
REMARK  155  A    between atoms: _383  and  _384
REMARK  156  A    between atoms: _383  and  _386
REMARK  157  A    between atoms: _386  and  _387
REMARK  158  A    between atoms: _390  and  _392
REMARK  159  A    between atoms: _392  and  _393
REMARK  160  A    between atoms: _392  and  _395
REMARK  161  A    between atoms: _398  and  _400
REMARK  162  A    between atoms: _400  and  _401
REMARK  163  A    between atoms: _403  and  _405
REMARK  164  A    between atoms: _405  and  _406
REMARK  165  A    between atoms: _405  and  _408
REMARK  166  A    between atoms: _412  and  _413
REMARK  167  A    between atoms: _418  and  _420
REMARK  168  A    between atoms: _420  and  _421
REMARK  169  A    between atoms: _420  and  _423
REMARK  170  A    between atoms: _423  and  _424
REMARK  171  A    between atoms: _427  and  _429
REMARK  172  A    between atoms: _429  and  _430
REMARK  173  A    between atoms: _429  and  _432
REMARK  174  A    between atoms: _435  and  _437
REMARK  175  A    between atoms: _437  and  _438
REMARK  176  A    between atoms: _437  and  _440
REMARK  177  A    between atoms: _440  and  _441
REMARK  178  A    between atoms: _441  and  _442
REMARK  179  A    between atoms: _442  and  _443
REMARK  180  A    between atoms: _452  and  _454
REMARK  181  A    between atoms: _454  and  _455
REMARK  182  A    between atoms: _454  and  _457
REMARK  183  A    between atoms: _457  and  _458
REMARK  184  A    between atoms: _458  and  _459
REMARK  185  A    between atoms: _462  and  _464
REMARK  186  A    between atoms: _464  and  _465
REMARK  187  A    between atoms: _464  and  _467
REMARK  188  A    between atoms: _467  and  _468
REMARK  189  A    between atoms: _471  and  _473
REMARK  190  A    between atoms: _473  and  _474
REMARK  191  A    between atoms: _477  and  _479
REMARK  192  A    between atoms: _479  and  _480
REMARK  193  A    between atoms: _479  and  _482
REMARK  194  A    between atoms: _482  and  _483
REMARK  195  A    between atoms: _483  and  _484
REMARK  196  A    between atoms: _486  and  _488
REMARK  197  A    between atoms: _488  and  _489
REMARK  198  A    between atoms: _488  and  _491
REMARK  199  A    between atoms: _491  and  _492
REMARK  200  A    between atoms: _494  and  _496
REMARK  201  A    between atoms: _496  and  _497
REMARK  202  A    between atoms: _496  and  _499
REMARK  203  A    between atoms: _499  and  _500
REMARK  204  A    between atoms: _502  and  _504
REMARK  205  A    between atoms: _504  and  _505
REMARK  206  A    between atoms: _504  and  _507
REMARK  207  A    between atoms: _507  and  _508
REMARK  208  A    between atoms: _508  and  _509
REMARK  209  A    between atoms: _509  and  _510
REMARK  210  A    between atoms: _519  and  _521
REMARK  211  A    between atoms: _521  and  _522
REMARK  212  A    between atoms: _521  and  _524
REMARK  213  A    between atoms: _524  and  _525
REMARK  214  A    between atoms: _530  and  _532
REMARK  215  A    between atoms: _532  and  _533
REMARK  216  A    between atoms: _532  and  _535
REMARK  217  A    between atoms: _535  and  _536
REMARK  218  A    between atoms: _539  and  _541
REMARK  219  A    between atoms: _541  and  _542
REMARK  220  A    between atoms: _541  and  _544
REMARK  221  A    between atoms: _544  and  _545
REMARK                            x       y       z     vdW  Elec       q    Type
REMARK                         _______ _______ _______ _____ _____    ______ ____
ROOT
ATOM      1  C   GLU A   4      14.502   3.737  -3.798  0.00  0.00    +0.241 C 
ATOM      2  O   GLU A   4      15.274   2.756  -3.810  0.00  0.00    -0.273 OA
ATOM      3  N   LYS A   5      14.935   4.998  -3.837  0.00  0.00    -0.297 N 
ATOM      4  H   LYS A   5      14.231   5.763  -3.814  0.00  0.00    +0.150 HD
ENDROOT
BRANCH   3   5
ATOM      5  CA  LYS A   5      16.360   5.361  -3.911  0.00  0.00    +0.149 C 
BRANCH   5   6
ATOM      6  C   LYS A   5      17.094   4.666  -2.785  0.00  0.00    +0.241 C 
ATOM      7  N   ASP A   6      16.509   4.726  -1.592  0.00  0.00    -0.297 N 
ATOM      8  H   ASP A   6      15.595   5.207  -1.474  0.00  0.00    +0.150 HD
ATOM      9  O   LYS A   5      18.161   4.075  -2.978  0.00  0.00    -0.273 OA
BRANCH   7  10
ATOM     10  CA  ASP A   6      17.164   4.114  -0.471  0.00  0.00    +0.160 C 
BRANCH  10  11
ATOM     11  C   ASP A   6      16.389   2.858  -0.190  0.00  0.00    +0.241 C 
ATOM     12  O   ASP A   6      15.602   2.746   0.754  0.00  0.00    -0.273 OA
ATOM     13  N   TYR A   7      16.630   1.906  -1.069  0.00  0.00    -0.298 N 
ATOM     14  H   TYR A   7      17.444   2.000  -1.709  0.00  0.00    +0.150 HD
BRANCH  13  15
ATOM     15  CA  TYR A   7      15.789   0.733  -1.164  0.00  0.00    +0.141 C 
BRANCH  15  16
ATOM     16  C   TYR A   7      15.894  -0.187   0.056  0.00  0.00    +0.227 C 
ATOM     17  O   TYR A   7      14.870  -0.655   0.551  0.00  0.00    -0.286 OA
ENDBRANCH  15  16
BRANCH  15  18
ATOM     18  CB  TYR A   7      16.088  -0.020  -2.470  0.00  0.00    +0.054 C 
BRANCH  18  19
ATOM     19  CG  TYR A   7      15.195  -1.218  -2.721  0.00  0.00    -0.020 A 
ATOM     20  CD2 TYR A   7      15.531  -2.467  -2.220  0.00  0.00    -0.001 A 
ATOM     21  CE2 TYR A   7      14.753  -3.552  -2.450  0.00  0.00    +0.036 A 
ATOM     22  CZ  TYR A   7      13.595  -3.394  -3.214  0.00  0.00    +0.134 A 
ATOM     23  CE1 TYR A   7      13.262  -2.193  -3.747  0.00  0.00    +0.036 A 
ATOM     24  CD1 TYR A   7      14.077  -1.102  -3.487  0.00  0.00    -0.001 A 
BRANCH  22  25
ATOM     25  OH  TYR A   7      12.803  -4.467  -3.441  0.00  0.00    -0.506 OA
ATOM     26  HH  TYR A   7      13.184  -5.259  -2.985  0.00  0.00    +0.292 HD
ENDBRANCH  22  25
ENDBRANCH  18  19
ENDBRANCH  15  18
ENDBRANCH  13  15
ENDBRANCH  10  11
BRANCH  10  27
ATOM     27  CB  ASP A   6      17.249   5.072   0.717  0.00  0.00    +0.143 C 
BRANCH  27  28
ATOM     28  CG  ASP A   6      17.896   6.392   0.350  0.00  0.00    +0.367 C 
ATOM     29  OD2 ASP A   6      19.114   6.524   0.601  0.00  0.00    -0.246 OA
ATOM     30  OD1 ASP A   6      17.186   7.293  -0.195  0.00  0.00    -0.246 OA
ENDBRANCH  27  28
ENDBRANCH  10  27
ENDBRANCH   7  10
ENDBRANCH   5   6
BRANCH   5  31
ATOM     31  CB  LYS A   5      16.496   6.874  -3.743  0.00  0.00    +0.029 C 
BRANCH  31  32
ATOM     32  CG  LYS A   5      17.566   7.576  -4.577  0.00  0.00    +0.000 C 
BRANCH  32  33
ATOM     33  CD  LYS A   5      18.958   7.144  -4.218  0.00  0.00    -0.024 C 
BRANCH  33  34
ATOM     34  CE  LYS A   5      19.883   8.278  -4.398  0.00  0.00    -0.086 C 
BRANCH  34  35
ATOM     35  NZ  LYS A   5      19.638   9.037  -3.151  0.00  0.00    +0.380 N 
ATOM     36  HZ1 LYS A   5      19.867   8.439  -2.332  0.00  0.00    -0.089 HD
ATOM     37  HZ2 LYS A   5      18.638   9.318  -3.108  0.00  0.00    -0.089 HD
ATOM     38  HZ3 LYS A   5      20.238   9.886  -3.140  0.00  0.00    -0.089 HD
ENDBRANCH  34  35
ENDBRANCH  33  34
ENDBRANCH  32  33
ENDBRANCH  31  32
ENDBRANCH   5  31
ENDBRANCH   3   5
BRANCH   1  39
ATOM     39  CA  GLU A   4      12.962   3.540  -3.747  0.00  0.00    +0.149 C 
BRANCH  39  42
ATOM     40  C   GLY A   3      12.390   5.387  -2.248  0.00  0.00    +0.243 C 
ATOM     41  O   GLY A   3      13.025   4.889  -1.371  0.00  0.00    -0.273 OA
ATOM     42  N   GLU A   4      12.243   4.798  -3.439  0.00  0.00    -0.297 N 
ATOM     43  H   GLU A   4      11.620   5.226  -4.154  0.00  0.00    +0.150 HD
BRANCH  40  44
ATOM     44  CA  GLY A   3      11.747   6.733  -2.039  0.00  0.00    +0.176 C 
BRANCH  44  46
ATOM     45  C   PHE A   2      10.021   6.249  -0.373  0.00  0.00    +0.241 C 
ATOM     46  N   GLY A   3      11.176   6.820  -0.726  0.00  0.00    -0.295 N 
ATOM     47  H   GLY A   3      11.693   7.361  -0.004  0.00  0.00    +0.150 HD
ATOM     48  O   PHE A   2       9.343   5.558  -1.125  0.00  0.00    -0.273 OA
BRANCH  45  49
ATOM     49  CA  PHE A   2       9.581   6.469   1.059  0.00  0.00    +0.153 C 
BRANCH  49  52
ATOM     50  C   PHE A   1       7.555   7.443   2.026  0.00  0.00    +0.239 C 
ATOM     51  O   PHE A   1       8.154   8.224   2.763  0.00  0.00    -0.274 OA
ATOM     52  N   PHE A   2       8.143   6.571   1.206  0.00  0.00    -0.297 N 
ATOM     53  H   PHE A   2       7.541   5.934   0.646  0.00  0.00    +0.150 HD
BRANCH  50  54
ATOM     54  CA  PHE A   1       6.060   7.461   1.964  0.00  0.00    +0.149 C 
BRANCH  54  55
ATOM     55  N   PHE A   1       5.379   7.448   3.263  0.00  0.00    -0.238 NA
ATOM     56  H   PHE A   1       5.388   8.316   3.836  0.00  0.00    +0.142 HD
ENDBRANCH  54  55
BRANCH  54  57
ATOM     57  CB  PHE A   1       5.575   8.669   1.156  0.00  0.00    +0.053 C 
BRANCH  57  58
ATOM     58  CG  PHE A   1       4.132   8.589   0.877  0.00  0.00    -0.020 A 
ATOM     59  CD2 PHE A   1       3.209   8.755   1.911  0.00  0.00    -0.004 A 
ATOM     60  CE2 PHE A   1       1.833   8.607   1.663  0.00  0.00    -0.000 A 
ATOM     61  CZ  PHE A   1       1.388   8.272   0.391  0.00  0.00    -0.000 A 
ATOM     62  CE1 PHE A   1       2.308   8.087  -0.624  0.00  0.00    -0.000 A 
ATOM     63  CD1 PHE A   1       3.676   8.244  -0.379  0.00  0.00    -0.004 A 
ENDBRANCH  57  58
ENDBRANCH  54  57
ENDBRANCH  50  54
ENDBRANCH  49  52
BRANCH  49  64
ATOM     64  CB  PHE A   2      10.090   5.328   1.924  0.00  0.00    +0.055 C 
BRANCH  64  65
ATOM     65  CG  PHE A   2      10.063   5.637   3.417  0.00  0.00    -0.020 A 
ATOM     66  CD2 PHE A   2       9.036   5.162   4.233  0.00  0.00    -0.004 A 
ATOM     67  CE2 PHE A   2       9.005   5.418   5.585  0.00  0.00    -0.000 A 
ATOM     68  CZ  PHE A   2      10.001   6.167   6.154  0.00  0.00    -0.000 A 
ATOM     69  CE1 PHE A   2      11.033   6.644   5.369  0.00  0.00    -0.000 A 
ATOM     70  CD1 PHE A   2      11.057   6.380   3.991  0.00  0.00    -0.004 A 
ENDBRANCH  64  65
ENDBRANCH  49  64
ENDBRANCH  45  49
ENDBRANCH  44  46
ENDBRANCH  40  44
ENDBRANCH  39  42
BRANCH  39  71
ATOM     71  CB  GLU A   4      12.413   2.863  -5.027  0.00  0.00    +0.041 C 
BRANCH  71  72
ATOM     72  CG  GLU A   4      10.929   2.438  -4.947  0.00  0.00    +0.116 C 
BRANCH  72  73
ATOM     73  CD  GLU A   4      10.398   1.698  -6.178  0.00  0.00    +0.365 C 
ATOM     74  OE2 GLU A   4       9.249   1.221  -6.094  0.00  0.00    -0.246 OA
ATOM     75  OE1 GLU A   4      11.105   1.599  -7.216  0.00  0.00    -0.246 OA
ENDBRANCH  72  73
ENDBRANCH  71  72
ENDBRANCH  39  71
ENDBRANCH   1  39
TORSDOF 31
REMARK  Name = ../refined-set-2016/3ioc/3ioc_pocket.pdb
REMARK  221 active torsions:
REMARK  status: ('A' for Active; 'I' for Inactive)
REMARK    1  A    between atoms: _1  and  _3
REMARK    2  A    between atoms: _3  and  _4
REMARK    3  A    between atoms: _3  and  _6
REMARK    4  A    between atoms: _10  and  _11
REMARK    5  A    between atoms: _16  and  _18
REMARK    6  A    between atoms: _18  and  _19
REMARK    7  A    between atoms: _18  and  _21
REMARK    8  A    between atoms: _21  and  _22
REMARK    9  A    between atoms: _25  and  _27
REMARK   10  A    between atoms: _27  and  _28
REMARK   11  A    between atoms: _27  and  _30
REMARK   12  A    between atoms: _30  and  _31
REMARK   13  A    between atoms: _31  and  _32
REMARK   14  A    between atoms: _34  and  _36
REMARK   15  A    between atoms: _36  and  _37
REMARK   16  A    between atoms: _39  and  _41
REMARK   17  A    between atoms: _41  and  _42
REMARK   18  A    between atoms: _45  and  _47
REMARK   19  A    between atoms: _47  and  _48
REMARK   20  A    between atoms: _47  and  _50
REMARK   21  A    between atoms: _50  and  _51
REMARK   22  A    between atoms: _54  and  _56
REMARK   23  A    between atoms: _56  and  _57
REMARK   24  A    between atoms: _56  and  _59
REMARK   25  A    between atoms: _59  and  _60
REMARK   26  A    between atoms: _65  and  _67
REMARK   27  A    between atoms: _67  and  _68
REMARK   28  A    between atoms: _67  and  _70
REMARK   29  A    between atoms: _70  and  _71
REMARK   30  A    between atoms: _71  and  _72
REMARK   31  A    between atoms: _75  and  _77
REMARK   32  A    between atoms: _77  and  _78
REMARK   33  A    between atoms: _80  and  _82
REMARK   34  A    between atoms: _82  and  _83
REMARK   35  A    between atoms: _82  and  _85
REMARK   36  A    between atoms: _85  and  _86
REMARK   37  A    between atoms: _91  and  _93
REMARK   38  A    between atoms: _93  and  _94
REMARK   39  A    between atoms: _93  and  _96
REMARK   40  A    between atoms: _96  and  _97
REMARK   41  A    between atoms: _100  and  _102
REMARK   42  A    between atoms: _102  and  _103
REMARK   43  A    between atoms: _106  and  _108
REMARK   44  A    between atoms: _108  and  _109
REMARK   45  A    between atoms: _108  and  _111
REMARK   46  A    between atoms: _111  and  _112
REMARK   47  A    between atoms: _115  and  _117
REMARK   48  A    between atoms: _117  and  _118
REMARK   49  A    between atoms: _117  and  _120
REMARK   50  A    between atoms: _123  and  _125
REMARK   51  A    between atoms: _125  and  _126
REMARK   52  A    between atoms: _125  and  _128
REMARK   53  A    between atoms: _128  and  _129
REMARK   54  A    between atoms: _131  and  _133
REMARK   55  A    between atoms: _133  and  _134
REMARK   56  A    between atoms: _133  and  _136
REMARK   57  A    between atoms: _136  and  _137
REMARK   58  A    between atoms: _140  and  _142
REMARK   59  A    between atoms: _142  and  _143
REMARK   60  A    between atoms: _142  and  _145
REMARK   61  A    between atoms: _145  and  _146
REMARK   62  A    between atoms: _152  and  _154
REMARK   63  A    between atoms: _154  and  _155
REMARK   64  A    between atoms: _154  and  _157
REMARK   65  A    between atoms: _160  and  _162
REMARK   66  A    between atoms: _162  and  _163
REMARK   67  A    between atoms: _162  and  _165
REMARK   68  A    between atoms: _165  and  _166
REMARK   69  A    between atoms: _171  and  _173
REMARK   70  A    between atoms: _173  and  _174
REMARK   71  A    between atoms: _173  and  _176
REMARK   72  A    between atoms: _176  and  _177
REMARK   73  A    between atoms: _177  and  _178
REMARK   74  A    between atoms: _183  and  _185
REMARK   75  A    between atoms: _185  and  _186
REMARK   76  A    between atoms: _185  and  _188
REMARK   77  A    between atoms: _188  and  _189
REMARK   78  A    between atoms: _194  and  _195
REMARK   79  A    between atoms: _197  and  _199
REMARK   80  A    between atoms: _199  and  _200
REMARK   81  A    between atoms: _199  and  _202
REMARK   82  A    between atoms: _202  and  _203
REMARK   83  A    between atoms: _208  and  _210
REMARK   84  A    between atoms: _210  and  _211
REMARK   85  A    between atoms: _210  and  _213
REMARK   86  A    between atoms: _213  and  _214
REMARK   87  A    between atoms: _220  and  _222
REMARK   88  A    between atoms: _222  and  _223
REMARK   89  A    between atoms: _225  and  _227
REMARK   90  A    between atoms: _227  and  _228
REMARK   91  A    between atoms: _227  and  _230
REMARK   92  A    between atoms: _233  and  _235
REMARK   93  A    between atoms: _235  and  _236
REMARK   94  A    between atoms: _235  and  _238
REMARK   95  A    between atoms: _238  and  _239
REMARK   96  A    between atoms: _242  and  _244
REMARK   97  A    between atoms: _244  and  _245
REMARK   98  A    between atoms: _244  and  _247
REMARK   99  A    between atoms: _247  and  _248
REMARK  100  A    between atoms: _251  and  _253
REMARK  101  A    between atoms: _253  and  _254
REMARK  102  A    between atoms: _253  and  _256
REMARK  103  A    between atoms: _259  and  _261
REMARK  104  A    between atoms: _261  and  _262
REMARK  105  A    between atoms: _261  and  _264
REMARK  106  A    between atoms: _267  and  _269
REMARK  107  A    between atoms: _269  and  _270
REMARK  108  A    between atoms: _269  and  _272
REMARK  109  A    between atoms: _272  and  _273
REMARK  110  A    between atoms: _276  and  _278
REMARK  111  A    between atoms: _278  and  _279
REMARK  112  A    between atoms: _278  and  _281
REMARK  113  A    between atoms: _281  and  _282
REMARK  114  A    between atoms: _285  and  _287
REMARK  115  A    between atoms: _287  and  _288
REMARK  116  A    between atoms: _287  and  _290
REMARK  117  A    between atoms: _290  and  _291
REMARK  118  A    between atoms: _297  and  _299
REMARK  119  A    between atoms: _299  and  _300
REMARK  120  A    between atoms: _299  and  _302
REMARK  121  A    between atoms: _302  and  _303
REMARK  122  A    between atoms: _309  and  _311
REMARK  123  A    between atoms: _311  and  _312
REMARK  124  A    between atoms: _314  and  _316
REMARK  125  A    between atoms: _316  and  _317
REMARK  126  A    between atoms: _316  and  _319
REMARK  127  A    between atoms: _319  and  _320
REMARK  128  A    between atoms: _320  and  _321
REMARK  129  A    between atoms: _324  and  _326
REMARK  130  A    between atoms: _326  and  _327
REMARK  131  A    between atoms: _326  and  _329
REMARK  132  A    between atoms: _329  and  _330
REMARK  133  A    between atoms: _330  and  _331
REMARK  134  A    between atoms: _331  and  _332
REMARK  135  A    between atoms: _332  and  _333
REMARK  136  A    between atoms: _337  and  _339
REMARK  137  A    between atoms: _339  and  _340
REMARK  138  A    between atoms: _339  and  _342
REMARK  139  A    between atoms: _342  and  _343
REMARK  140  A    between atoms: _346  and  _348
REMARK  141  A    between atoms: _348  and  _349
REMARK  142  A    between atoms: _348  and  _351
REMARK  143  A    between atoms: _351  and  _352
REMARK  144  A    between atoms: _357  and  _358
REMARK  145  A    between atoms: _360  and  _362
REMARK  146  A    between atoms: _362  and  _363
REMARK  147  A    between atoms: _362  and  _365
REMARK  148  A    between atoms: _365  and  _366
REMARK  149  A    between atoms: _366  and  _367
REMARK  150  A    between atoms: _372  and  _374
REMARK  151  A    between atoms: _374  and  _375
REMARK  152  A    between atoms: _374  and  _377
REMARK  153  A    between atoms: _377  and  _378
REMARK  154  A    between atoms: _381  and  _383
REMARK  155  A    between atoms: _383  and  _384
REMARK  156  A    between atoms: _383  and  _386
REMARK  157  A    between atoms: _386  and  _387
REMARK  158  A    between atoms: _390  and  _392
REMARK  159  A    between atoms: _392  and  _393
REMARK  160  A    between atoms: _392  and  _395
REMARK  161  A    between atoms: _398  and  _400
REMARK  162  A    between atoms: _400  and  _401
REMARK  163  A    between atoms: _403  and  _405
REMARK  164  A    between atoms: _405  and  _406
REMARK  165  A    between atoms: _405  and  _408
REMARK  166  A    between atoms: _412  and  _413
REMARK  167  A    between atoms: _418  and  _420
REMARK  168  A    between atoms: _420  and  _421
REMARK  169  A    between atoms: _420  and  _423
REMARK  170  A    between atoms: _423  and  _424
REMARK  171  A    between atoms: _427  and  _429
REMARK  172  A    between atoms: _429  and  _430
REMARK  173  A    between atoms: _429  and  _432
REMARK  174  A    between atoms: _435  and  _437
REMARK  175  A    between atoms: _437  and  _438
REMARK  176  A    between atoms: _437  and  _440
REMARK  177  A    between atoms: _440  and  _441
REMARK  178  A    between atoms: _441  and  _442
REMARK  179  A    between atoms: _442  and  _443
REMARK  180  A    between atoms: _452  and  _454
REMARK  181  A    between atoms: _454  and  _455
REMARK  182  A    between atoms: _454  and  _457
REMARK  183  A    between atoms: _457  and  _458
REMARK  184  A    between atoms: _458  and  _459
REMARK  185  A    between atoms: _462  and  _464
REMARK  186  A    between atoms: _464  and  _465
REMARK  187  A    between atoms: _464  and  _467
REMARK  188  A    between atoms: _467  and  _468
REMARK  189  A    between atoms: _471  and  _473
REMARK  190  A    between atoms: _473  and  _474
REMARK  191  A    between atoms: _477  and  _479
REMARK  192  A    between atoms: _479  and  _480
REMARK  193  A    between atoms: _479  and  _482
REMARK  194  A    between atoms: _482  and  _483
REMARK  195  A    between atoms: _483  and  _484
REMARK  196  A    between atoms: _486  and  _488
REMARK  197  A    between atoms: _488  and  _489
REMARK  198  A    between atoms: _488  and  _491
REMARK  199  A    between atoms: _491  and  _492
REMARK  200  A    between atoms: _494  and  _496
REMARK  201  A    between atoms: _496  and  _497
REMARK  202  A    between atoms: _496  and  _499
REMARK  203  A    between atoms: _499  and  _500
REMARK  204  A    between atoms: _502  and  _504
REMARK  205  A    between atoms: _504  and  _505
REMARK  206  A    between atoms: _504  and  _507
REMARK  207  A    between atoms: _507  and  _508
REMARK  208  A    between atoms: _508  and  _509
REMARK  209  A    between atoms: _509  and  _510
REMARK  210  A    between atoms: _519  and  _521
REMARK  211  A    between atoms: _521  and  _522
REMARK  212  A    between atoms: _521  and  _524
REMARK  213  A    between atoms: _524  and  _525
REMARK  214  A    between atoms: _530  and  _532
REMARK  215  A    between atoms: _532  and  _533
REMARK  216  A    between atoms: _532  and  _535
REMARK  217  A    between atoms: _535  and  _536
REMARK  218  A    between atoms: _539  and  _541
REMARK  219  A    between atoms: _541  and  _542
REMARK  220  A    between atoms: _541  and  _544
REMARK  221  A    between atoms: _544  and  _545
REMARK                            x       y       z     vdW  Elec       q    Type
REMARK                         _______ _______ _______ _____ _____    ______ ____
ROOT
ATOM      1  C   GLN A   1      14.332   1.223   3.957  0.00  0.00    +0.238 C 
ATOM      2  O   GLN A   1      13.588   1.053   4.937  0.00  0.00    -0.274 OA
ATOM      3  N   LEU A   2      13.885   1.172   2.709  0.00  0.00    -0.298 N 
ATOM      4  H   LEU A   2      14.552   1.340   1.929  0.00  0.00    +0.150 HD
ENDROOT
BRANCH   1   5
ATOM      5  CA  GLN A   1      15.844   1.498   4.140  0.00  0.00    +0.145 C 
BRANCH   5   6
ATOM      6  N   GLN A   1      16.677   0.802   3.146  0.00  0.00    -0.238 NA
ATOM      7  H   GLN A   1      17.358   1.338   2.571  0.00  0.00    +0.142 HD
ENDBRANCH   5   6
BRANCH   5   8
ATOM      8  CB  GLN A   1      16.105   2.989   4.052  0.00  0.00    +0.036 C 
BRANCH   8   9
ATOM      9  CG  GLN A   1      15.479   3.832   5.112  0.00  0.00    +0.087 C 
BRANCH   9  10
ATOM     10  CD  GLN A   1      15.746   5.275   4.840  0.00  0.00    +0.219 C 
ATOM     11  OE1 GLN A   1      16.499   5.901   5.565  0.00  0.00    -0.275 OA
ATOM     12  NE2 GLN A   1      15.195   5.807   3.735  0.00  0.00    -0.329 N 
ATOM     13 HE21 GLN A   1      15.407   6.790   3.470  0.00  0.00    +0.145 HD
ATOM     14 HE22 GLN A   1      14.557   5.235   3.145  0.00  0.00    +0.145 HD
ENDBRANCH   9  10
ENDBRANCH   8   9
ENDBRANCH   5   8
ENDBRANCH   1   5
BRANCH   3  15
ATOM     15  CA  LEU A   2      12.521   0.894   2.401  0.00  0.00    +0.137 C 
BRANCH  15  16
ATOM     16  C   LEU A   2      12.122  -0.500   2.913  0.00  0.00    +0.227 C 
ATOM     17  O   LEU A   2      11.160  -0.646   3.693  0.00  0.00    -0.286 OA
ENDBRANCH  15  16
BRANCH  15  18
ATOM     18  CB  LEU A   2      12.300   1.019   0.903  0.00  0.00    +0.028 C 
BRANCH  18  19
ATOM     19  CG  LEU A   2      10.884   0.850   0.357  0.00  0.00    +0.002 C 
ATOM     20  CD2 LEU A   2       9.968   1.954   0.885  0.00  0.00    +0.000 C 
ATOM     21  CD1 LEU A   2      10.966   0.885  -1.180  0.00  0.00    +0.000 C 
ENDBRANCH  18  19
ENDBRANCH  15  18
ENDBRANCH   3  15
TORSDOF 9
REMARK  Name = ../refined-set-2016/3ioc/3ioc_pocket.pdb
REMARK  221 active torsions:
REMARK  status: ('A' for Active; 'I' for Inactive)
REMARK    1  A    between atoms: _1  and  _3
REMARK    2  A    between atoms: _3  and  _4
REMARK    3  A    between atoms: _3  and  _6
REMARK    4  A    between atoms: _10  and  _11
REMARK    5  A    between atoms: _16  and  _18
REMARK    6  A    between atoms: _18  and  _19
REMARK    7  A    between atoms: _18  and  _21
REMARK    8  A    between atoms: _21  and  _22
REMARK    9  A    between atoms: _25  and  _27
REMARK   10  A    between atoms: _27  and  _28
REMARK   11  A    between atoms: _27  and  _30
REMARK   12  A    between atoms: _30  and  _31
REMARK   13  A    between atoms: _31  and  _32
REMARK   14  A    between atoms: _34  and  _36
REMARK   15  A    between atoms: _36  and  _37
REMARK   16  A    between atoms: _39  and  _41
REMARK   17  A    between atoms: _41  and  _42
REMARK   18  A    between atoms: _45  and  _47
REMARK   19  A    between atoms: _47  and  _48
REMARK   20  A    between atoms: _47  and  _50
REMARK   21  A    between atoms: _50  and  _51
REMARK   22  A    between atoms: _54  and  _56
REMARK   23  A    between atoms: _56  and  _57
REMARK   24  A    between atoms: _56  and  _59
REMARK   25  A    between atoms: _59  and  _60
REMARK   26  A    between atoms: _65  and  _67
REMARK   27  A    between atoms: _67  and  _68
REMARK   28  A    between atoms: _67  and  _70
REMARK   29  A    between atoms: _70  and  _71
REMARK   30  A    between atoms: _71  and  _72
REMARK   31  A    between atoms: _75  and  _77
REMARK   32  A    between atoms: _77  and  _78
REMARK   33  A    between atoms: _80  and  _82
REMARK   34  A    between atoms: _82  and  _83
REMARK   35  A    between atoms: _82  and  _85
REMARK   36  A    between atoms: _85  and  _86
REMARK   37  A    between atoms: _91  and  _93
REMARK   38  A    between atoms: _93  and  _94
REMARK   39  A    between atoms: _93  and  _96
REMARK   40  A    between atoms: _96  and  _97
REMARK   41  A    between atoms: _100  and  _102
REMARK   42  A    between atoms: _102  and  _103
REMARK   43  A    between atoms: _106  and  _108
REMARK   44  A    between atoms: _108  and  _109
REMARK   45  A    between atoms: _108  and  _111
REMARK   46  A    between atoms: _111  and  _112
REMARK   47  A    between atoms: _115  and  _117
REMARK   48  A    between atoms: _117  and  _118
REMARK   49  A    between atoms: _117  and  _120
REMARK   50  A    between atoms: _123  and  _125
REMARK   51  A    between atoms: _125  and  _126
REMARK   52  A    between atoms: _125  and  _128
REMARK   53  A    between atoms: _128  and  _129
REMARK   54  A    between atoms: _131  and  _133
REMARK   55  A    between atoms: _133  and  _134
REMARK   56  A    between atoms: _133  and  _136
REMARK   57  A    between atoms: _136  and  _137
REMARK   58  A    between atoms: _140  and  _142
REMARK   59  A    between atoms: _142  and  _143
REMARK   60  A    between atoms: _142  and  _145
REMARK   61  A    between atoms: _145  and  _146
REMARK   62  A    between atoms: _152  and  _154
REMARK   63  A    between atoms: _154  and  _155
REMARK   64  A    between atoms: _154  and  _157
REMARK   65  A    between atoms: _160  and  _162
REMARK   66  A    between atoms: _162  and  _163
REMARK   67  A    between atoms: _162  and  _165
REMARK   68  A    between atoms: _165  and  _166
REMARK   69  A    between atoms: _171  and  _173
REMARK   70  A    between atoms: _173  and  _174
REMARK   71  A    between atoms: _173  and  _176
REMARK   72  A    between atoms: _176  and  _177
REMARK   73  A    between atoms: _177  and  _178
REMARK   74  A    between atoms: _183  and  _185
REMARK   75  A    between atoms: _185  and  _186
REMARK   76  A    between atoms: _185  and  _188
REMARK   77  A    between atoms: _188  and  _189
REMARK   78  A    between atoms: _194  and  _195
REMARK   79  A    between atoms: _197  and  _199
REMARK   80  A    between atoms: _199  and  _200
REMARK   81  A    between atoms: _199  and  _202
REMARK   82  A    between atoms: _202  and  _203
REMARK   83  A    between atoms: _208  and  _210
REMARK   84  A    between atoms: _210  and  _211
REMARK   85  A    between atoms: _210  and  _213
REMARK   86  A    between atoms: _213  and  _214
REMARK   87  A    between atoms: _220  and  _222
REMARK   88  A    between atoms: _222  and  _223
REMARK   89  A    between atoms: _225  and  _227
REMARK   90  A    between atoms: _227  and  _228
REMARK   91  A    between atoms: _227  and  _230
REMARK   92  A    between atoms: _233  and  _235
REMARK   93  A    between atoms: _235  and  _236
REMARK   94  A    between atoms: _235  and  _238
REMARK   95  A    between atoms: _238  and  _239
REMARK   96  A    between atoms: _242  and  _244
REMARK   97  A    between atoms: _244  and  _245
REMARK   98  A    between atoms: _244  and  _247
REMARK   99  A    between atoms: _247  and  _248
REMARK  100  A    between atoms: _251  and  _253
REMARK  101  A    between atoms: _253  and  _254
REMARK  102  A    between atoms: _253  and  _256
REMARK  103  A    between atoms: _259  and  _261
REMARK  104  A    between atoms: _261  and  _262
REMARK  105  A    between atoms: _261  and  _264
REMARK  106  A    between atoms: _267  and  _269
REMARK  107  A    between atoms: _269  and  _270
REMARK  108  A    between atoms: _269  and  _272
REMARK  109  A    between atoms: _272  and  _273
REMARK  110  A    between atoms: _276  and  _278
REMARK  111  A    between atoms: _278  and  _279
REMARK  112  A    between atoms: _278  and  _281
REMARK  113  A    between atoms: _281  and  _282
REMARK  114  A    between atoms: _285  and  _287
REMARK  115  A    between atoms: _287  and  _288
REMARK  116  A    between atoms: _287  and  _290
REMARK  117  A    between atoms: _290  and  _291
REMARK  118  A    between atoms: _297  and  _299
REMARK  119  A    between atoms: _299  and  _300
REMARK  120  A    between atoms: _299  and  _302
REMARK  121  A    between atoms: _302  and  _303
REMARK  122  A    between atoms: _309  and  _311
REMARK  123  A    between atoms: _311  and  _312
REMARK  124  A    between atoms: _314  and  _316
REMARK  125  A    between atoms: _316  and  _317
REMARK  126  A    between atoms: _316  and  _319
REMARK  127  A    between atoms: _319  and  _320
REMARK  128  A    between atoms: _320  and  _321
REMARK  129  A    between atoms: _324  and  _326
REMARK  130  A    between atoms: _326  and  _327
REMARK  131  A    between atoms: _326  and  _329
REMARK  132  A    between atoms: _329  and  _330
REMARK  133  A    between atoms: _330  and  _331
REMARK  134  A    between atoms: _331  and  _332
REMARK  135  A    between atoms: _332  and  _333
REMARK  136  A    between atoms: _337  and  _339
REMARK  137  A    between atoms: _339  and  _340
REMARK  138  A    between atoms: _339  and  _342
REMARK  139  A    between atoms: _342  and  _343
REMARK  140  A    between atoms: _346  and  _348
REMARK  141  A    between atoms: _348  and  _349
REMARK  142  A    between atoms: _348  and  _351
REMARK  143  A    between atoms: _351  and  _352
REMARK  144  A    between atoms: _357  and  _358
REMARK  145  A    between atoms: _360  and  _362
REMARK  146  A    between atoms: _362  and  _363
REMARK  147  A    between atoms: _362  and  _365
REMARK  148  A    between atoms: _365  and  _366
REMARK  149  A    between atoms: _366  and  _367
REMARK  150  A    between atoms: _372  and  _374
REMARK  151  A    between atoms: _374  and  _375
REMARK  152  A    between atoms: _374  and  _377
REMARK  153  A    between atoms: _377  and  _378
REMARK  154  A    between atoms: _381  and  _383
REMARK  155  A    between atoms: _383  and  _384
REMARK  156  A    between atoms: _383  and  _386
REMARK  157  A    between atoms: _386  and  _387
REMARK  158  A    between atoms: _390  and  _392
REMARK  159  A    between atoms: _392  and  _393
REMARK  160  A    between atoms: _392  and  _395
REMARK  161  A    between atoms: _398  and  _400
REMARK  162  A    between atoms: _400  and  _401
REMARK  163  A    between atoms: _403  and  _405
REMARK  164  A    between atoms: _405  and  _406
REMARK  165  A    between atoms: _405  and  _408
REMARK  166  A    between atoms: _412  and  _413
REMARK  167  A    between atoms: _418  and  _420
REMARK  168  A    between atoms: _420  and  _421
REMARK  169  A    between atoms: _420  and  _423
REMARK  170  A    between atoms: _423  and  _424
REMARK  171  A    between atoms: _427  and  _429
REMARK  172  A    between atoms: _429  and  _430
REMARK  173  A    between atoms: _429  and  _432
REMARK  174  A    between atoms: _435  and  _437
REMARK  175  A    between atoms: _437  and  _438
REMARK  176  A    between atoms: _437  and  _440
REMARK  177  A    between atoms: _440  and  _441
REMARK  178  A    between atoms: _441  and  _442
REMARK  179  A    between atoms: _442  and  _443
REMARK  180  A    between atoms: _452  and  _454
REMARK  181  A    between atoms: _454  and  _455
REMARK  182  A    between atoms: _454  and  _457
REMARK  183  A    between atoms: _457  and  _458
REMARK  184  A    between atoms: _458  and  _459
REMARK  185  A    between atoms: _462  and  _464
REMARK  186  A    between atoms: _464  and  _465
REMARK  187  A    between atoms: _464  and  _467
REMARK  188  A    between atoms: _467  and  _468
REMARK  189  A    between atoms: _471  and  _473
REMARK  190  A    between atoms: _473  and  _474
REMARK  191  A    between atoms: _477  and  _479
REMARK  192  A    between atoms: _479  and  _480
REMARK  193  A    between atoms: _479  and  _482
REMARK  194  A    between atoms: _482  and  _483
REMARK  195  A    between atoms: _483  and  _484
REMARK  196  A    between atoms: _486  and  _488
REMARK  197  A    between atoms: _488  and  _489
REMARK  198  A    between atoms: _488  and  _491
REMARK  199  A    between atoms: _491  and  _492
REMARK  200  A    between atoms: _494  and  _496
REMARK  201  A    between atoms: _496  and  _497
REMARK  202  A    between atoms: _496  and  _499
REMARK  203  A    between atoms: _499  and  _500
REMARK  204  A    between atoms: _502  and  _504
REMARK  205  A    between atoms: _504  and  _505
REMARK  206  A    between atoms: _504  and  _507
REMARK  207  A    between atoms: _507  and  _508
REMARK  208  A    between atoms: _508  and  _509
REMARK  209  A    between atoms: _509  and  _510
REMARK  210  A    between atoms: _519  and  _521
REMARK  211  A    between atoms: _521  and  _522
REMARK  212  A    between atoms: _521  and  _524
REMARK  213  A    between atoms: _524  and  _525
REMARK  214  A    between atoms: _530  and  _532
REMARK  215  A    between atoms: _532  and  _533
REMARK  216  A    between atoms: _532  and  _535
REMARK  217  A    between atoms: _535  and  _536
REMARK  218  A    between atoms: _539  and  _541
REMARK  219  A    between atoms: _541  and  _542
REMARK  220  A    between atoms: _541  and  _544
REMARK  221  A    between atoms: _544  and  _545
REMARK                            x       y       z     vdW  Elec       q    Type
REMARK                         _______ _______ _______ _____ _____    ______ ____
ROOT
ATOM      1  CA  ILE A   1      10.778  -0.042   7.174  0.00  0.00    +0.133 C 
ENDROOT
BRANCH   1   2
ATOM      2  N   ILE A   1      12.027  -0.638   6.701  0.00  0.00    -0.239 NA
ATOM      3  H   ILE A   1      12.593  -0.169   5.965  0.00  0.00    +0.142 HD
ENDBRANCH   1   2
BRANCH   1   4
ATOM      4  C   ILE A   1       9.507  -0.933   7.047  0.00  0.00    +0.224 C 
ATOM      5  O   ILE A   1       8.621  -0.896   7.894  0.00  0.00    -0.287 OA
ENDBRANCH   1   4
BRANCH   1   6
ATOM      6  CB  ILE A   1      10.639   1.331   6.575  0.00  0.00    +0.023 C 
ATOM      7  CG2 ILE A   1       9.260   1.862   6.694  0.00  0.00    +0.002 C 
BRANCH   6   8
ATOM      8  CG1 ILE A   1      11.624   2.251   7.274  0.00  0.00    +0.002 C 
ATOM      9  CD1 ILE A   1      11.904   3.490   6.395  0.00  0.00    +0.000 C 
ENDBRANCH   6   8
ENDBRANCH   1   6
TORSDOF 4
REMARK  Name = ../refined-set-2016/3ioc/3ioc_pocket.pdb
REMARK  221 active torsions:
REMARK  status: ('A' for Active; 'I' for Inactive)
REMARK    1  A    between atoms: _1  and  _3
REMARK    2  A    between atoms: _3  and  _4
REMARK    3  A    between atoms: _3  and  _6
REMARK    4  A    between atoms: _10  and  _11
REMARK    5  A    between atoms: _16  and  _18
REMARK    6  A    between atoms: _18  and  _19
REMARK    7  A    between atoms: _18  and  _21
REMARK    8  A    between atoms: _21  and  _22
REMARK    9  A    between atoms: _25  and  _27
REMARK   10  A    between atoms: _27  and  _28
REMARK   11  A    between atoms: _27  and  _30
REMARK   12  A    between atoms: _30  and  _31
REMARK   13  A    between atoms: _31  and  _32
REMARK   14  A    between atoms: _34  and  _36
REMARK   15  A    between atoms: _36  and  _37
REMARK   16  A    between atoms: _39  and  _41
REMARK   17  A    between atoms: _41  and  _42
REMARK   18  A    between atoms: _45  and  _47
REMARK   19  A    between atoms: _47  and  _48
REMARK   20  A    between atoms: _47  and  _50
REMARK   21  A    between atoms: _50  and  _51
REMARK   22  A    between atoms: _54  and  _56
REMARK   23  A    between atoms: _56  and  _57
REMARK   24  A    between atoms: _56  and  _59
REMARK   25  A    between atoms: _59  and  _60
REMARK   26  A    between atoms: _65  and  _67
REMARK   27  A    between atoms: _67  and  _68
REMARK   28  A    between atoms: _67  and  _70
REMARK   29  A    between atoms: _70  and  _71
REMARK   30  A    between atoms: _71  and  _72
REMARK   31  A    between atoms: _75  and  _77
REMARK   32  A    between atoms: _77  and  _78
REMARK   33  A    between atoms: _80  and  _82
REMARK   34  A    between atoms: _82  and  _83
REMARK   35  A    between atoms: _82  and  _85
REMARK   36  A    between atoms: _85  and  _86
REMARK   37  A    between atoms: _91  and  _93
REMARK   38  A    between atoms: _93  and  _94
REMARK   39  A    between atoms: _93  and  _96
REMARK   40  A    between atoms: _96  and  _97
REMARK   41  A    between atoms: _100  and  _102
REMARK   42  A    between atoms: _102  and  _103
REMARK   43  A    between atoms: _106  and  _108
REMARK   44  A    between atoms: _108  and  _109
REMARK   45  A    between atoms: _108  and  _111
REMARK   46  A    between atoms: _111  and  _112
REMARK   47  A    between atoms: _115  and  _117
REMARK   48  A    between atoms: _117  and  _118
REMARK   49  A    between atoms: _117  and  _120
REMARK   50  A    between atoms: _123  and  _125
REMARK   51  A    between atoms: _125  and  _126
REMARK   52  A    between atoms: _125  and  _128
REMARK   53  A    between atoms: _128  and  _129
REMARK   54  A    between atoms: _131  and  _133
REMARK   55  A    between atoms: _133  and  _134
REMARK   56  A    between atoms: _133  and  _136
REMARK   57  A    between atoms: _136  and  _137
REMARK   58  A    between atoms: _140  and  _142
REMARK   59  A    between atoms: _142  and  _143
REMARK   60  A    between atoms: _142  and  _145
REMARK   61  A    between atoms: _145  and  _146
REMARK   62  A    between atoms: _152  and  _154
REMARK   63  A    between atoms: _154  and  _155
REMARK   64  A    between atoms: _154  and  _157
REMARK   65  A    between atoms: _160  and  _162
REMARK   66  A    between atoms: _162  and  _163
REMARK   67  A    between atoms: _162  and  _165
REMARK   68  A    between atoms: _165  and  _166
REMARK   69  A    between atoms: _171  and  _173
REMARK   70  A    between atoms: _173  and  _174
REMARK   71  A    between atoms: _173  and  _176
REMARK   72  A    between atoms: _176  and  _177
REMARK   73  A    between atoms: _177  and  _178
REMARK   74  A    between atoms: _183  and  _185
REMARK   75  A    between atoms: _185  and  _186
REMARK   76  A    between atoms: _185  and  _188
REMARK   77  A    between atoms: _188  and  _189
REMARK   78  A    between atoms: _194  and  _195
REMARK   79  A    between atoms: _197  and  _199
REMARK   80  A    between atoms: _199  and  _200
REMARK   81  A    between atoms: _199  and  _202
REMARK   82  A    between atoms: _202  and  _203
REMARK   83  A    between atoms: _208  and  _210
REMARK   84  A    between atoms: _210  and  _211
REMARK   85  A    between atoms: _210  and  _213
REMARK   86  A    between atoms: _213  and  _214
REMARK   87  A    between atoms: _220  and  _222
REMARK   88  A    between atoms: _222  and  _223
REMARK   89  A    between atoms: _225  and  _227
REMARK   90  A    between atoms: _227  and  _228
REMARK   91  A    between atoms: _227  and  _230
REMARK   92  A    between atoms: _233  and  _235
REMARK   93  A    between atoms: _235  and  _236
REMARK   94  A    between atoms: _235  and  _238
REMARK   95  A    between atoms: _238  and  _239
REMARK   96  A    between atoms: _242  and  _244
REMARK   97  A    between atoms: _244  and  _245
REMARK   98  A    between atoms: _244  and  _247
REMARK   99  A    between atoms: _247  and  _248
REMARK  100  A    between atoms: _251  and  _253
REMARK  101  A    between atoms: _253  and  _254
REMARK  102  A    between atoms: _253  and  _256
REMARK  103  A    between atoms: _259  and  _261
REMARK  104  A    between atoms: _261  and  _262
REMARK  105  A    between atoms: _261  and  _264
REMARK  106  A    between atoms: _267  and  _269
REMARK  107  A    between atoms: _269  and  _270
REMARK  108  A    between atoms: _269  and  _272
REMARK  109  A    between atoms: _272  and  _273
REMARK  110  A    between atoms: _276  and  _278
REMARK  111  A    between atoms: _278  and  _279
REMARK  112  A    between atoms: _278  and  _281
REMARK  113  A    between atoms: _281  and  _282
REMARK  114  A    between atoms: _285  and  _287
REMARK  115  A    between atoms: _287  and  _288
REMARK  116  A    between atoms: _287  and  _290
REMARK  117  A    between atoms: _290  and  _291
REMARK  118  A    between atoms: _297  and  _299
REMARK  119  A    between atoms: _299  and  _300
REMARK  120  A    between atoms: _299  and  _302
REMARK  121  A    between atoms: _302  and  _303
REMARK  122  A    between atoms: _309  and  _311
REMARK  123  A    between atoms: _311  and  _312
REMARK  124  A    between atoms: _314  and  _316
REMARK  125  A    between atoms: _316  and  _317
REMARK  126  A    between atoms: _316  and  _319
REMARK  127  A    between atoms: _319  and  _320
REMARK  128  A    between atoms: _320  and  _321
REMARK  129  A    between atoms: _324  and  _326
REMARK  130  A    between atoms: _326  and  _327
REMARK  131  A    between atoms: _326  and  _329
REMARK  132  A    between atoms: _329  and  _330
REMARK  133  A    between atoms: _330  and  _331
REMARK  134  A    between atoms: _331  and  _332
REMARK  135  A    between atoms: _332  and  _333
REMARK  136  A    between atoms: _337  and  _339
REMARK  137  A    between atoms: _339  and  _340
REMARK  138  A    between atoms: _339  and  _342
REMARK  139  A    between atoms: _342  and  _343
REMARK  140  A    between atoms: _346  and  _348
REMARK  141  A    between atoms: _348  and  _349
REMARK  142  A    between atoms: _348  and  _351
REMARK  143  A    between atoms: _351  and  _352
REMARK  144  A    between atoms: _357  and  _358
REMARK  145  A    between atoms: _360  and  _362
REMARK  146  A    between atoms: _362  and  _363
REMARK  147  A    between atoms: _362  and  _365
REMARK  148  A    between atoms: _365  and  _366
REMARK  149  A    between atoms: _366  and  _367
REMARK  150  A    between atoms: _372  and  _374
REMARK  151  A    between atoms: _374  and  _375
REMARK  152  A    between atoms: _374  and  _377
REMARK  153  A    between atoms: _377  and  _378
REMARK  154  A    between atoms: _381  and  _383
REMARK  155  A    between atoms: _383  and  _384
REMARK  156  A    between atoms: _383  and  _386
REMARK  157  A    between atoms: _386  and  _387
REMARK  158  A    between atoms: _390  and  _392
REMARK  159  A    between atoms: _392  and  _393
REMARK  160  A    between atoms: _392  and  _395
REMARK  161  A    between atoms: _398  and  _400
REMARK  162  A    between atoms: _400  and  _401
REMARK  163  A    between atoms: _403  and  _405
REMARK  164  A    between atoms: _405  and  _406
REMARK  165  A    between atoms: _405  and  _408
REMARK  166  A    between atoms: _412  and  _413
REMARK  167  A    between atoms: _418  and  _420
REMARK  168  A    between atoms: _420  and  _421
REMARK  169  A    between atoms: _420  and  _423
REMARK  170  A    between atoms: _423  and  _424
REMARK  171  A    between atoms: _427  and  _429
REMARK  172  A    between atoms: _429  and  _430
REMARK  173  A    between atoms: _429  and  _432
REMARK  174  A    between atoms: _435  and  _437
REMARK  175  A    between atoms: _437  and  _438
REMARK  176  A    between atoms: _437  and  _440
REMARK  177  A    between atoms: _440  and  _441
REMARK  178  A    between atoms: _441  and  _442
REMARK  179  A    between atoms: _442  and  _443
REMARK  180  A    between atoms: _452  and  _454
REMARK  181  A    between atoms: _454  and  _455
REMARK  182  A    between atoms: _454  and  _457
REMARK  183  A    between atoms: _457  and  _458
REMARK  184  A    between atoms: _458  and  _459
REMARK  185  A    between atoms: _462  and  _464
REMARK  186  A    between atoms: _464  and  _465
REMARK  187  A    between atoms: _464  and  _467
REMARK  188  A    between atoms: _467  and  _468
REMARK  189  A    between atoms: _471  and  _473
REMARK  190  A    between atoms: _473  and  _474
REMARK  191  A    between atoms: _477  and  _479
REMARK  192  A    between atoms: _479  and  _480
REMARK  193  A    between atoms: _479  and  _482
REMARK  194  A    between atoms: _482  and  _483
REMARK  195  A    between atoms: _483  and  _484
REMARK  196  A    between atoms: _486  and  _488
REMARK  197  A    between atoms: _488  and  _489
REMARK  198  A    between atoms: _488  and  _491
REMARK  199  A    between atoms: _491  and  _492
REMARK  200  A    between atoms: _494  and  _496
REMARK  201  A    between atoms: _496  and  _497
REMARK  202  A    between atoms: _496  and  _499
REMARK  203  A    between atoms: _499  and  _500
REMARK  204  A    between atoms: _502  and  _504
REMARK  205  A    between atoms: _504  and  _505
REMARK  206  A    between atoms: _504  and  _507
REMARK  207  A    between atoms: _507  and  _508
REMARK  208  A    between atoms: _508  and  _509
REMARK  209  A    between atoms: _509  and  _510
REMARK  210  A    between atoms: _519  and  _521
REMARK  211  A    between atoms: _521  and  _522
REMARK  212  A    between atoms: _521  and  _524
REMARK  213  A    between atoms: _524  and  _525
REMARK  214  A    between atoms: _530  and  _532
REMARK  215  A    between atoms: _532  and  _533
REMARK  216  A    between atoms: _532  and  _535
REMARK  217  A    between atoms: _535  and  _536
REMARK  218  A    between atoms: _539  and  _541
REMARK  219  A    between atoms: _541  and  _542
REMARK  220  A    between atoms: _541  and  _544
REMARK  221  A    between atoms: _544  and  _545
REMARK                            x       y       z     vdW  Elec       q    Type
REMARK                         _______ _______ _______ _____ _____    ______ ____
ROOT
ATOM      1  C   THR A   5      13.249   8.101  -8.918  0.00  0.00    +0.243 C 
ATOM      2  N   VAL A   6      13.723   9.309  -8.641  0.00  0.00    -0.297 N 
ATOM      3  H   VAL A   6      14.216   9.470  -7.740  0.00  0.00    +0.150 HD
ATOM      4  O   THR A   5      12.672   7.834  -9.974  0.00  0.00    -0.273 OA
ENDROOT
BRANCH   2   5
ATOM      5  CA  VAL A   6      13.562  10.429  -9.591  0.00  0.00    +0.149 C 
BRANCH   5   6
ATOM      6  C   VAL A   6      14.940  10.750 -10.133  0.00  0.00    +0.241 C 
ATOM      7  O   VAL A   6      15.896  10.820  -9.360  0.00  0.00    -0.273 OA
ATOM      8  N   ARG A   7      15.032  10.910 -11.461  0.00  0.00    -0.297 N 
ATOM      9  H   ARG A   7      14.157  11.032 -12.010  0.00  0.00    +0.150 HD
BRANCH   8  10
ATOM     10  CA  ARG A   7      16.338  10.921 -12.186  0.00  0.00    +0.149 C 
BRANCH  10  11
ATOM     11  C   ARG A   7      16.593  12.214 -12.979  0.00  0.00    +0.241 C 
ATOM     12  N   GLU A   8      17.838  12.640 -13.044  0.00  0.00    -0.298 N 
ATOM     13  H   GLU A   8      18.566  12.208 -12.440  0.00  0.00    +0.150 HD
ATOM     14  O   ARG A   7      15.672  12.826 -13.516  0.00  0.00    -0.273 OA
BRANCH  12  15
ATOM     15  CA  GLU A   8      18.197  13.715 -13.961  0.00  0.00    +0.137 C 
BRANCH  15  16
ATOM     16  C   GLU A   8      18.007  13.179 -15.381  0.00  0.00    +0.227 C 
ATOM     17  O   GLU A   8      17.883  11.949 -15.562  0.00  0.00    -0.286 OA
ENDBRANCH  15  16
BRANCH  15  18
ATOM     18  CB  GLU A   8      19.649  14.110 -13.771  0.00  0.00    +0.039 C 
BRANCH  18  19
ATOM     19  CG  GLU A   8      20.114  14.125 -12.337  0.00  0.00    +0.116 C 
BRANCH  19  20
ATOM     20  CD  GLU A   8      20.239  15.527 -11.779  0.00  0.00    +0.365 C 
ATOM     21  OE2 GLU A   8      21.112  15.726 -10.880  0.00  0.00    -0.246 OA
ATOM     22  OE1 GLU A   8      19.456  16.409 -12.235  0.00  0.00    -0.246 OA
ENDBRANCH  19  20
ENDBRANCH  18  19
ENDBRANCH  15  18
ENDBRANCH  12  15
ENDBRANCH  10  11
BRANCH  10  23
ATOM     23  CB  ARG A   7      16.440   9.693 -13.112  0.00  0.00    +0.033 C 
BRANCH  23  24
ATOM     24  CG  ARG A   7      16.663   8.381 -12.337  0.00  0.00    +0.045 C 
BRANCH  24  25
ATOM     25  CD  ARG A   7      16.817   7.141 -13.249  0.00  0.00    +0.174 C 
BRANCH  25  26
ATOM     26  NE  ARG A   7      16.460   5.945 -12.515  0.00  0.00    -0.265 N 
ATOM     27  CZ  ARG A   7      17.267   5.258 -11.707  0.00  0.00    +0.342 C 
ATOM     28  NH2 ARG A   7      16.809   4.184 -11.047  0.00  0.00    -0.292 N 
ATOM     29 HH21 ARG A   7      17.443   3.651 -10.418  0.00  0.00    +0.255 HD
ATOM     30 HH22 ARG A   7      15.820   3.884 -11.165  0.00  0.00    +0.255 HD
ATOM     31  NH1 ARG A   7      18.526   5.622 -11.552  0.00  0.00    -0.292 N 
ATOM     32 HH11 ARG A   7      19.150   5.081 -10.920  0.00  0.00    +0.255 HD
ATOM     33 HH12 ARG A   7      18.894   6.450 -12.062  0.00  0.00    +0.255 HD
ATOM     34  HE  ARG A   7      15.489   5.591 -12.628  0.00  0.00    +0.259 HD
ENDBRANCH  25  26
ENDBRANCH  24  25
ENDBRANCH  23  24
ENDBRANCH  10  23
ENDBRANCH   8  10
ENDBRANCH   5   6
BRANCH   5  35
ATOM     35  CB  VAL A   6      12.847  11.633  -8.931  0.00  0.00    +0.027 C 
ATOM     36  CG2 VAL A   6      11.384  11.273  -8.735  0.00  0.00    +0.002 C 
ATOM     37  CG1 VAL A   6      12.996  12.933  -9.750  0.00  0.00    +0.002 C 
ENDBRANCH   5  35
ENDBRANCH   2   5
BRANCH   1  38
ATOM     38  CA  THR A   5      13.492   7.006  -7.894  0.00  0.00    +0.176 C 
BRANCH  38  41
ATOM     39  C   PRO A   4      11.120   6.330  -7.745  0.00  0.00    +0.241 C 
ATOM     40  O   PRO A   4      10.654   7.496  -7.684  0.00  0.00    -0.273 OA
ATOM     41  N   THR A   5      12.407   6.022  -7.901  0.00  0.00    -0.295 N 
ATOM     42  H   THR A   5      12.656   5.021  -8.036  0.00  0.00    +0.150 HD
BRANCH  39  49
ATOM     43  C   VAL A   3       9.294   5.599  -5.458  0.00  0.00    +0.244 C 
ATOM     44  O   VAL A   3      10.446   5.693  -4.983  0.00  0.00    -0.273 OA
ATOM     45  N   PRO A   4       9.074   5.392  -6.768  0.00  0.00    -0.272 N 
ATOM     46  CD  PRO A   4       7.796   5.423  -7.521  0.00  0.00    +0.094 C 
ATOM     47  CG  PRO A   4       8.225   5.338  -8.978  0.00  0.00    +0.024 C 
ATOM     48  CB  PRO A   4       9.593   4.808  -9.009  0.00  0.00    +0.031 C 
ATOM     49  CA  PRO A   4      10.221   5.127  -7.639  0.00  0.00    +0.152 C 
BRANCH  43  50
ATOM     50  CA  VAL A   3       8.052   5.706  -4.554  0.00  0.00    +0.149 C 
BRANCH  50  52
ATOM     51  C   GLY A   2       7.437   3.790  -3.208  0.00  0.00    +0.243 C 
ATOM     52  N   VAL A   3       8.207   4.847  -3.422  0.00  0.00    -0.297 N 
ATOM     53  H   VAL A   3       8.958   5.061  -2.735  0.00  0.00    +0.150 HD
ATOM     54  O   GLY A   2       6.618   3.389  -4.021  0.00  0.00    -0.273 OA
BRANCH  51  55
ATOM     55  CA  GLY A   2       7.624   3.086  -1.886  0.00  0.00    +0.176 C 
BRANCH  55  58
ATOM     56  C   VAL A   1       5.715   3.621  -0.583  0.00  0.00    +0.238 C 
ATOM     57  O   VAL A   1       6.267   4.619  -0.237  0.00  0.00    -0.274 OA
ATOM     58  N   GLY A   2       6.318   2.745  -1.364  0.00  0.00    -0.296 N 
ATOM     59  H   GLY A   2       5.868   1.837  -1.597  0.00  0.00    +0.150 HD
BRANCH  56  60
ATOM     60  CA  VAL A   1       4.309   3.325  -0.114  0.00  0.00    +0.145 C 
BRANCH  60  61
ATOM     61  CB  VAL A   1       3.388   4.473  -0.482  0.00  0.00    +0.025 C 
ATOM     62  CG2 VAL A   1       1.941   4.137  -0.041  0.00  0.00    +0.002 C 
ATOM     63  CG1 VAL A   1       3.431   4.738  -1.941  0.00  0.00    +0.002 C 
ENDBRANCH  60  61
BRANCH  60  64
ATOM     64  N   VAL A   1       4.285   3.138   1.329  0.00  0.00    -0.238 NA
ATOM     65  H   VAL A   1       4.357   3.972   1.946  0.00  0.00    +0.142 HD
ENDBRANCH  60  64
ENDBRANCH  56  60
ENDBRANCH  55  58
ENDBRANCH  51  55
ENDBRANCH  50  52
BRANCH  50  66
ATOM     66  CB  VAL A   3       7.784   7.061  -4.028  0.00  0.00    +0.027 C 
ATOM     67  CG2 VAL A   3       6.499   7.006  -3.370  0.00  0.00    +0.002 C 
ATOM     68  CG1 VAL A   3       7.710   8.103  -5.129  0.00  0.00    +0.002 C 
ENDBRANCH  50  66
ENDBRANCH  43  50
ENDBRANCH  39  49
ENDBRANCH  38  41
BRANCH  38  69
ATOM     69  CB  THR A   5      14.775   6.290  -8.248  0.00  0.00    +0.137 C 
ATOM     70  CG2 THR A   5      16.011   7.210  -8.155  0.00  0.00    +0.034 C 
BRANCH  69  71
ATOM     71  OG1 THR A   5      14.916   5.212  -7.336  0.00  0.00    -0.382 OA
ATOM     72  HG1 THR A   5      15.749   4.717  -7.538  0.00  0.00    +0.210 HD
ENDBRANCH  69  71
ENDBRANCH  38  69
ENDBRANCH   1  38
TORSDOF 27
REMARK  Name = ../refined-set-2016/3ioc/3ioc_pocket.pdb
REMARK  221 active torsions:
REMARK  status: ('A' for Active; 'I' for Inactive)
REMARK    1  A    between atoms: _1  and  _3
REMARK    2  A    between atoms: _3  and  _4
REMARK    3  A    between atoms: _3  and  _6
REMARK    4  A    between atoms: _10  and  _11
REMARK    5  A    between atoms: _16  and  _18
REMARK    6  A    between atoms: _18  and  _19
REMARK    7  A    between atoms: _18  and  _21
REMARK    8  A    between atoms: _21  and  _22
REMARK    9  A    between atoms: _25  and  _27
REMARK   10  A    between atoms: _27  and  _28
REMARK   11  A    between atoms: _27  and  _30
REMARK   12  A    between atoms: _30  and  _31
REMARK   13  A    between atoms: _31  and  _32
REMARK   14  A    between atoms: _34  and  _36
REMARK   15  A    between atoms: _36  and  _37
REMARK   16  A    between atoms: _39  and  _41
REMARK   17  A    between atoms: _41  and  _42
REMARK   18  A    between atoms: _45  and  _47
REMARK   19  A    between atoms: _47  and  _48
REMARK   20  A    between atoms: _47  and  _50
REMARK   21  A    between atoms: _50  and  _51
REMARK   22  A    between atoms: _54  and  _56
REMARK   23  A    between atoms: _56  and  _57
REMARK   24  A    between atoms: _56  and  _59
REMARK   25  A    between atoms: _59  and  _60
REMARK   26  A    between atoms: _65  and  _67
REMARK   27  A    between atoms: _67  and  _68
REMARK   28  A    between atoms: _67  and  _70
REMARK   29  A    between atoms: _70  and  _71
REMARK   30  A    between atoms: _71  and  _72
REMARK   31  A    between atoms: _75  and  _77
REMARK   32  A    between atoms: _77  and  _78
REMARK   33  A    between atoms: _80  and  _82
REMARK   34  A    between atoms: _82  and  _83
REMARK   35  A    between atoms: _82  and  _85
REMARK   36  A    between atoms: _85  and  _86
REMARK   37  A    between atoms: _91  and  _93
REMARK   38  A    between atoms: _93  and  _94
REMARK   39  A    between atoms: _93  and  _96
REMARK   40  A    between atoms: _96  and  _97
REMARK   41  A    between atoms: _100  and  _102
REMARK   42  A    between atoms: _102  and  _103
REMARK   43  A    between atoms: _106  and  _108
REMARK   44  A    between atoms: _108  and  _109
REMARK   45  A    between atoms: _108  and  _111
REMARK   46  A    between atoms: _111  and  _112
REMARK   47  A    between atoms: _115  and  _117
REMARK   48  A    between atoms: _117  and  _118
REMARK   49  A    between atoms: _117  and  _120
REMARK   50  A    between atoms: _123  and  _125
REMARK   51  A    between atoms: _125  and  _126
REMARK   52  A    between atoms: _125  and  _128
REMARK   53  A    between atoms: _128  and  _129
REMARK   54  A    between atoms: _131  and  _133
REMARK   55  A    between atoms: _133  and  _134
REMARK   56  A    between atoms: _133  and  _136
REMARK   57  A    between atoms: _136  and  _137
REMARK   58  A    between atoms: _140  and  _142
REMARK   59  A    between atoms: _142  and  _143
REMARK   60  A    between atoms: _142  and  _145
REMARK   61  A    between atoms: _145  and  _146
REMARK   62  A    between atoms: _152  and  _154
REMARK   63  A    between atoms: _154  and  _155
REMARK   64  A    between atoms: _154  and  _157
REMARK   65  A    between atoms: _160  and  _162
REMARK   66  A    between atoms: _162  and  _163
REMARK   67  A    between atoms: _162  and  _165
REMARK   68  A    between atoms: _165  and  _166
REMARK   69  A    between atoms: _171  and  _173
REMARK   70  A    between atoms: _173  and  _174
REMARK   71  A    between atoms: _173  and  _176
REMARK   72  A    between atoms: _176  and  _177
REMARK   73  A    between atoms: _177  and  _178
REMARK   74  A    between atoms: _183  and  _185
REMARK   75  A    between atoms: _185  and  _186
REMARK   76  A    between atoms: _185  and  _188
REMARK   77  A    between atoms: _188  and  _189
REMARK   78  A    between atoms: _194  and  _195
REMARK   79  A    between atoms: _197  and  _199
REMARK   80  A    between atoms: _199  and  _200
REMARK   81  A    between atoms: _199  and  _202
REMARK   82  A    between atoms: _202  and  _203
REMARK   83  A    between atoms: _208  and  _210
REMARK   84  A    between atoms: _210  and  _211
REMARK   85  A    between atoms: _210  and  _213
REMARK   86  A    between atoms: _213  and  _214
REMARK   87  A    between atoms: _220  and  _222
REMARK   88  A    between atoms: _222  and  _223
REMARK   89  A    between atoms: _225  and  _227
REMARK   90  A    between atoms: _227  and  _228
REMARK   91  A    between atoms: _227  and  _230
REMARK   92  A    between atoms: _233  and  _235
REMARK   93  A    between atoms: _235  and  _236
REMARK   94  A    between atoms: _235  and  _238
REMARK   95  A    between atoms: _238  and  _239
REMARK   96  A    between atoms: _242  and  _244
REMARK   97  A    between atoms: _244  and  _245
REMARK   98  A    between atoms: _244  and  _247
REMARK   99  A    between atoms: _247  and  _248
REMARK  100  A    between atoms: _251  and  _253
REMARK  101  A    between atoms: _253  and  _254
REMARK  102  A    between atoms: _253  and  _256
REMARK  103  A    between atoms: _259  and  _261
REMARK  104  A    between atoms: _261  and  _262
REMARK  105  A    between atoms: _261  and  _264
REMARK  106  A    between atoms: _267  and  _269
REMARK  107  A    between atoms: _269  and  _270
REMARK  108  A    between atoms: _269  and  _272
REMARK  109  A    between atoms: _272  and  _273
REMARK  110  A    between atoms: _276  and  _278
REMARK  111  A    between atoms: _278  and  _279
REMARK  112  A    between atoms: _278  and  _281
REMARK  113  A    between atoms: _281  and  _282
REMARK  114  A    between atoms: _285  and  _287
REMARK  115  A    between atoms: _287  and  _288
REMARK  116  A    between atoms: _287  and  _290
REMARK  117  A    between atoms: _290  and  _291
REMARK  118  A    between atoms: _297  and  _299
REMARK  119  A    between atoms: _299  and  _300
REMARK  120  A    between atoms: _299  and  _302
REMARK  121  A    between atoms: _302  and  _303
REMARK  122  A    between atoms: _309  and  _311
REMARK  123  A    between atoms: _311  and  _312
REMARK  124  A    between atoms: _314  and  _316
REMARK  125  A    between atoms: _316  and  _317
REMARK  126  A    between atoms: _316  and  _319
REMARK  127  A    between atoms: _319  and  _320
REMARK  128  A    between atoms: _320  and  _321
REMARK  129  A    between atoms: _324  and  _326
REMARK  130  A    between atoms: _326  and  _327
REMARK  131  A    between atoms: _326  and  _329
REMARK  132  A    between atoms: _329  and  _330
REMARK  133  A    between atoms: _330  and  _331
REMARK  134  A    between atoms: _331  and  _332
REMARK  135  A    between atoms: _332  and  _333
REMARK  136  A    between atoms: _337  and  _339
REMARK  137  A    between atoms: _339  and  _340
REMARK  138  A    between atoms: _339  and  _342
REMARK  139  A    between atoms: _342  and  _343
REMARK  140  A    between atoms: _346  and  _348
REMARK  141  A    between atoms: _348  and  _349
REMARK  142  A    between atoms: _348  and  _351
REMARK  143  A    between atoms: _351  and  _352
REMARK  144  A    between atoms: _357  and  _358
REMARK  145  A    between atoms: _360  and  _362
REMARK  146  A    between atoms: _362  and  _363
REMARK  147  A    between atoms: _362  and  _365
REMARK  148  A    between atoms: _365  and  _366
REMARK  149  A    between atoms: _366  and  _367
REMARK  150  A    between atoms: _372  and  _374
REMARK  151  A    between atoms: _374  and  _375
REMARK  152  A    between atoms: _374  and  _377
REMARK  153  A    between atoms: _377  and  _378
REMARK  154  A    between atoms: _381  and  _383
REMARK  155  A    between atoms: _383  and  _384
REMARK  156  A    between atoms: _383  and  _386
REMARK  157  A    between atoms: _386  and  _387
REMARK  158  A    between atoms: _390  and  _392
REMARK  159  A    between atoms: _392  and  _393
REMARK  160  A    between atoms: _392  and  _395
REMARK  161  A    between atoms: _398  and  _400
REMARK  162  A    between atoms: _400  and  _401
REMARK  163  A    between atoms: _403  and  _405
REMARK  164  A    between atoms: _405  and  _406
REMARK  165  A    between atoms: _405  and  _408
REMARK  166  A    between atoms: _412  and  _413
REMARK  167  A    between atoms: _418  and  _420
REMARK  168  A    between atoms: _420  and  _421
REMARK  169  A    between atoms: _420  and  _423
REMARK  170  A    between atoms: _423  and  _424
REMARK  171  A    between atoms: _427  and  _429
REMARK  172  A    between atoms: _429  and  _430
REMARK  173  A    between atoms: _429  and  _432
REMARK  174  A    between atoms: _435  and  _437
REMARK  175  A    between atoms: _437  and  _438
REMARK  176  A    between atoms: _437  and  _440
REMARK  177  A    between atoms: _440  and  _441
REMARK  178  A    between atoms: _441  and  _442
REMARK  179  A    between atoms: _442  and  _443
REMARK  180  A    between atoms: _452  and  _454
REMARK  181  A    between atoms: _454  and  _455
REMARK  182  A    between atoms: _454  and  _457
REMARK  183  A    between atoms: _457  and  _458
REMARK  184  A    between atoms: _458  and  _459
REMARK  185  A    between atoms: _462  and  _464
REMARK  186  A    between atoms: _464  and  _465
REMARK  187  A    between atoms: _464  and  _467
REMARK  188  A    between atoms: _467  and  _468
REMARK  189  A    between atoms: _471  and  _473
REMARK  190  A    between atoms: _473  and  _474
REMARK  191  A    between atoms: _477  and  _479
REMARK  192  A    between atoms: _479  and  _480
REMARK  193  A    between atoms: _479  and  _482
REMARK  194  A    between atoms: _482  and  _483
REMARK  195  A    between atoms: _483  and  _484
REMARK  196  A    between atoms: _486  and  _488
REMARK  197  A    between atoms: _488  and  _489
REMARK  198  A    between atoms: _488  and  _491
REMARK  199  A    between atoms: _491  and  _492
REMARK  200  A    between atoms: _494  and  _496
REMARK  201  A    between atoms: _496  and  _497
REMARK  202  A    between atoms: _496  and  _499
REMARK  203  A    between atoms: _499  and  _500
REMARK  204  A    between atoms: _502  and  _504
REMARK  205  A    between atoms: _504  and  _505
REMARK  206  A    between atoms: _504  and  _507
REMARK  207  A    between atoms: _507  and  _508
REMARK  208  A    between atoms: _508  and  _509
REMARK  209  A    between atoms: _509  and  _510
REMARK  210  A    between atoms: _519  and  _521
REMARK  211  A    between atoms: _521  and  _522
REMARK  212  A    between atoms: _521  and  _524
REMARK  213  A    between atoms: _524  and  _525
REMARK  214  A    between atoms: _530  and  _532
REMARK  215  A    between atoms: _532  and  _533
REMARK  216  A    between atoms: _532  and  _535
REMARK  217  A    between atoms: _535  and  _536
REMARK  218  A    between atoms: _539  and  _541
REMARK  219  A    between atoms: _541  and  _542
REMARK  220  A    between atoms: _541  and  _544
REMARK  221  A    between atoms: _544  and  _545
REMARK                            x       y       z     vdW  Elec       q    Type
REMARK                         _______ _______ _______ _____ _____    ______ ____
ROOT
ATOM      1  C   SER A   4      21.014  14.508  -4.029  0.00  0.00    +0.243 C 
ATOM      2  N   SER A   5      20.969  14.819  -2.741  0.00  0.00    -0.295 N 
ATOM      3  H   SER A   5      20.494  14.183  -2.070  0.00  0.00    +0.150 HD
ATOM      4  O   SER A   4      21.411  15.276  -4.905  0.00  0.00    -0.273 OA
ENDROOT
BRANCH   2   5
ATOM      5  CA  SER A   5      21.583  16.048  -2.266  0.00  0.00    +0.178 C 
BRANCH   5   6
ATOM      6  C   SER A   5      23.074  15.949  -2.626  0.00  0.00    +0.243 C 
ATOM      7  N   ARG A   6      23.689  14.807  -2.273  0.00  0.00    -0.297 N 
ATOM      8  H   ARG A   6      23.121  14.064  -1.817  0.00  0.00    +0.150 HD
ATOM      9  O   SER A   5      23.622  16.859  -3.263  0.00  0.00    -0.273 OA
BRANCH   7  10
ATOM     10  CA  ARG A   6      25.122  14.549  -2.496  0.00  0.00    +0.149 C 
BRANCH  10  11
ATOM     11  C   ARG A   6      25.692  14.917  -3.892  0.00  0.00    +0.241 C 
ATOM     12  O   ARG A   6      26.878  15.228  -4.005  0.00  0.00    -0.273 OA
ATOM     13  N   ASN A   7      24.844  14.905  -4.930  0.00  0.00    -0.298 N 
ATOM     14  H   ASN A   7      23.859  14.617  -4.763  0.00  0.00    +0.150 HD
BRANCH  13  15
ATOM     15  CA  ASN A   7      25.246  15.283  -6.301  0.00  0.00    +0.146 C 
BRANCH  15  16
ATOM     16  C   ASN A   7      25.554  16.770  -6.450  0.00  0.00    +0.227 C 
ATOM     17  O   ASN A   7      26.041  17.187  -7.509  0.00  0.00    -0.286 OA
ENDBRANCH  15  16
BRANCH  15  18
ATOM     18  CB  ASN A   7      24.163  14.949  -7.350  0.00  0.00    +0.112 C 
BRANCH  18  19
ATOM     19  CG  ASN A   7      23.649  13.508  -7.282  0.00  0.00    +0.222 C 
ATOM     20  OD1 ASN A   7      24.245  12.632  -6.649  0.00  0.00    -0.275 OA
ATOM     21  ND2 ASN A   7      22.523  13.265  -7.956  0.00  0.00    -0.329 N 
ATOM     22 HD21 ASN A   7      22.116  12.308  -7.961  0.00  0.00    +0.145 HD
ATOM     23 HD22 ASN A   7      22.053  14.033  -8.477  0.00  0.00    +0.145 HD
ENDBRANCH  18  19
ENDBRANCH  15  18
ENDBRANCH  13  15
ENDBRANCH  10  11
BRANCH  10  24
ATOM     24  CB  ARG A   6      25.482  13.113  -2.100  0.00  0.00    +0.033 C 
BRANCH  24  25
ATOM     25  CG  ARG A   6      26.310  13.053  -0.832  0.00  0.00    +0.045 C 
BRANCH  25  26
ATOM     26  CD  ARG A   6      25.505  12.726   0.437  0.00  0.00    +0.174 C 
BRANCH  26  27
ATOM     27  NE  ARG A   6      25.521  11.293   0.752  0.00  0.00    -0.265 N 
ATOM     28  CZ  ARG A   6      26.600  10.592   1.120  0.00  0.00    +0.342 C 
ATOM     29  NH2 ARG A   6      26.502   9.286   1.384  0.00  0.00    -0.292 N 
ATOM     30 HH21 ARG A   6      27.345   8.748   1.669  0.00  0.00    +0.255 HD
ATOM     31 HH22 ARG A   6      25.582   8.807   1.304  0.00  0.00    +0.255 HD
ATOM     32  NH1 ARG A   6      27.789  11.185   1.208  0.00  0.00    -0.292 N 
ATOM     33 HH11 ARG A   6      28.624  10.635   1.494  0.00  0.00    +0.255 HD
ATOM     34 HH12 ARG A   6      27.882  12.198   0.990  0.00  0.00    +0.255 HD
ATOM     35  HE  ARG A   6      24.619  10.780   0.684  0.00  0.00    +0.259 HD
ENDBRANCH  26  27
ENDBRANCH  25  26
ENDBRANCH  24  25
ENDBRANCH  10  24
ENDBRANCH   7  10
ENDBRANCH   5   6
BRANCH   5  36
ATOM     36  CB  SER A   5      21.370  16.204  -0.761  0.00  0.00    +0.166 C 
BRANCH  36  37
ATOM     37  OG  SER A   5      21.923  15.087  -0.076  0.00  0.00    -0.380 OA
ATOM     38  H   SER A   5      21.781  15.195   0.898  0.00  0.00    +0.211 HD
ENDBRANCH  36  37
ENDBRANCH   5  36
ENDBRANCH   2   5
BRANCH   1  39
ATOM     39  CA  SER A   4      20.502  13.161  -4.399  0.00  0.00    +0.178 C 
BRANCH  39  42
ATOM     40  C   MET A   3      19.083  12.549  -6.235  0.00  0.00    +0.241 C 
ATOM     41  O   MET A   3      18.543  11.694  -5.517  0.00  0.00    -0.273 OA
ATOM     42  N   SER A   4      20.078  13.293  -5.784  0.00  0.00    -0.295 N 
ATOM     43  H   SER A   4      20.555  13.968  -6.415  0.00  0.00    +0.150 HD
BRANCH  40  44
ATOM     44  CA  MET A   3      18.678  12.753  -7.710  0.00  0.00    +0.149 C 
BRANCH  44  47
ATOM     45  C   ALA A   2      19.709  10.696  -8.557  0.00  0.00    +0.241 C 
ATOM     46  O   ALA A   2      20.825  11.037  -8.151  0.00  0.00    -0.273 OA
ATOM     47  N   MET A   3      18.630  11.471  -8.450  0.00  0.00    -0.297 N 
ATOM     48  H   MET A   3      17.739  11.170  -8.894  0.00  0.00    +0.150 HD
BRANCH  45  49
ATOM     49  CA  ALA A   2      19.562   9.367  -9.293  0.00  0.00    +0.149 C 
ATOM     50  CB  ALA A   2      19.628   8.171  -8.321  0.00  0.00    +0.031 C 
BRANCH  49  52
ATOM     51  C   LEU A   1      20.558  10.114 -11.386  0.00  0.00    +0.238 C 
ATOM     52  N   ALA A   2      20.611   9.275 -10.353  0.00  0.00    -0.297 N 
ATOM     53  H   ALA A   2      21.370   8.567 -10.285  0.00  0.00    +0.150 HD
ATOM     54  O   LEU A   1      19.691  10.996 -11.462  0.00  0.00    -0.274 OA
BRANCH  51  55
ATOM     55  CA  LEU A   1      21.621   9.962 -12.496  0.00  0.00    +0.145 C 
BRANCH  55  56
ATOM     56  N   LEU A   1      21.055   9.905 -13.846  0.00  0.00    -0.238 NA
ATOM     57  H   LEU A   1      21.319  10.637 -14.536  0.00  0.00    +0.142 HD
ENDBRANCH  55  56
BRANCH  55  58
ATOM     58  CB  LEU A   1      22.591  11.123 -12.415  0.00  0.00    +0.026 C 
BRANCH  58  59
ATOM     59  CG  LEU A   1      23.251  11.247 -11.041  0.00  0.00    +0.002 C 
ATOM     60  CD2 LEU A   1      24.204  10.073 -10.701  0.00  0.00    +0.000 C 
ATOM     61  CD1 LEU A   1      23.957  12.574 -10.943  0.00  0.00    +0.000 C 
ENDBRANCH  58  59
ENDBRANCH  55  58
ENDBRANCH  51  55
ENDBRANCH  49  52
ENDBRANCH  45  49
ENDBRANCH  44  47
BRANCH  44  62
ATOM     62  CB  MET A   3      17.350  13.496  -7.792  0.00  0.00    +0.041 C 
BRANCH  62  63
ATOM     63  CG  MET A   3      17.078  14.110  -9.118  0.00  0.00    +0.060 C 
BRANCH  63  64
ATOM     64  SD  MET A   3      16.229  15.698  -8.976  0.00  0.00    -0.139 S 
ATOM     65  CE  MET A   3      15.889  16.069 -10.732  0.00  0.00    +0.069 C 
ENDBRANCH  63  64
ENDBRANCH  62  63
ENDBRANCH  44  62
ENDBRANCH  40  44
ENDBRANCH  39  42
BRANCH  39  66
ATOM     66  CB  SER A   4      21.585  12.089  -4.214  0.00  0.00    +0.166 C 
BRANCH  66  67
ATOM     67  OG  SER A   4      21.734  11.735  -2.835  0.00  0.00    -0.380 OA
ATOM     68  H   SER A   4      22.437  11.044  -2.747  0.00  0.00    +0.211 HD
ENDBRANCH  66  67
ENDBRANCH  39  66
ENDBRANCH   1  39
TORSDOF 29
REMARK  Name = ../refined-set-2016/3ioc/3ioc_pocket.pdb
REMARK  221 active torsions:
REMARK  status: ('A' for Active; 'I' for Inactive)
REMARK    1  A    between atoms: _1  and  _3
REMARK    2  A    between atoms: _3  and  _4
REMARK    3  A    between atoms: _3  and  _6
REMARK    4  A    between atoms: _10  and  _11
REMARK    5  A    between atoms: _16  and  _18
REMARK    6  A    between atoms: _18  and  _19
REMARK    7  A    between atoms: _18  and  _21
REMARK    8  A    between atoms: _21  and  _22
REMARK    9  A    between atoms: _25  and  _27
REMARK   10  A    between atoms: _27  and  _28
REMARK   11  A    between atoms: _27  and  _30
REMARK   12  A    between atoms: _30  and  _31
REMARK   13  A    between atoms: _31  and  _32
REMARK   14  A    between atoms: _34  and  _36
REMARK   15  A    between atoms: _36  and  _37
REMARK   16  A    between atoms: _39  and  _41
REMARK   17  A    between atoms: _41  and  _42
REMARK   18  A    between atoms: _45  and  _47
REMARK   19  A    between atoms: _47  and  _48
REMARK   20  A    between atoms: _47  and  _50
REMARK   21  A    between atoms: _50  and  _51
REMARK   22  A    between atoms: _54  and  _56
REMARK   23  A    between atoms: _56  and  _57
REMARK   24  A    between atoms: _56  and  _59
REMARK   25  A    between atoms: _59  and  _60
REMARK   26  A    between atoms: _65  and  _67
REMARK   27  A    between atoms: _67  and  _68
REMARK   28  A    between atoms: _67  and  _70
REMARK   29  A    between atoms: _70  and  _71
REMARK   30  A    between atoms: _71  and  _72
REMARK   31  A    between atoms: _75  and  _77
REMARK   32  A    between atoms: _77  and  _78
REMARK   33  A    between atoms: _80  and  _82
REMARK   34  A    between atoms: _82  and  _83
REMARK   35  A    between atoms: _82  and  _85
REMARK   36  A    between atoms: _85  and  _86
REMARK   37  A    between atoms: _91  and  _93
REMARK   38  A    between atoms: _93  and  _94
REMARK   39  A    between atoms: _93  and  _96
REMARK   40  A    between atoms: _96  and  _97
REMARK   41  A    between atoms: _100  and  _102
REMARK   42  A    between atoms: _102  and  _103
REMARK   43  A    between atoms: _106  and  _108
REMARK   44  A    between atoms: _108  and  _109
REMARK   45  A    between atoms: _108  and  _111
REMARK   46  A    between atoms: _111  and  _112
REMARK   47  A    between atoms: _115  and  _117
REMARK   48  A    between atoms: _117  and  _118
REMARK   49  A    between atoms: _117  and  _120
REMARK   50  A    between atoms: _123  and  _125
REMARK   51  A    between atoms: _125  and  _126
REMARK   52  A    between atoms: _125  and  _128
REMARK   53  A    between atoms: _128  and  _129
REMARK   54  A    between atoms: _131  and  _133
REMARK   55  A    between atoms: _133  and  _134
REMARK   56  A    between atoms: _133  and  _136
REMARK   57  A    between atoms: _136  and  _137
REMARK   58  A    between atoms: _140  and  _142
REMARK   59  A    between atoms: _142  and  _143
REMARK   60  A    between atoms: _142  and  _145
REMARK   61  A    between atoms: _145  and  _146
REMARK   62  A    between atoms: _152  and  _154
REMARK   63  A    between atoms: _154  and  _155
REMARK   64  A    between atoms: _154  and  _157
REMARK   65  A    between atoms: _160  and  _162
REMARK   66  A    between atoms: _162  and  _163
REMARK   67  A    between atoms: _162  and  _165
REMARK   68  A    between atoms: _165  and  _166
REMARK   69  A    between atoms: _171  and  _173
REMARK   70  A    between atoms: _173  and  _174
REMARK   71  A    between atoms: _173  and  _176
REMARK   72  A    between atoms: _176  and  _177
REMARK   73  A    between atoms: _177  and  _178
REMARK   74  A    between atoms: _183  and  _185
REMARK   75  A    between atoms: _185  and  _186
REMARK   76  A    between atoms: _185  and  _188
REMARK   77  A    between atoms: _188  and  _189
REMARK   78  A    between atoms: _194  and  _195
REMARK   79  A    between atoms: _197  and  _199
REMARK   80  A    between atoms: _199  and  _200
REMARK   81  A    between atoms: _199  and  _202
REMARK   82  A    between atoms: _202  and  _203
REMARK   83  A    between atoms: _208  and  _210
REMARK   84  A    between atoms: _210  and  _211
REMARK   85  A    between atoms: _210  and  _213
REMARK   86  A    between atoms: _213  and  _214
REMARK   87  A    between atoms: _220  and  _222
REMARK   88  A    between atoms: _222  and  _223
REMARK   89  A    between atoms: _225  and  _227
REMARK   90  A    between atoms: _227  and  _228
REMARK   91  A    between atoms: _227  and  _230
REMARK   92  A    between atoms: _233  and  _235
REMARK   93  A    between atoms: _235  and  _236
REMARK   94  A    between atoms: _235  and  _238
REMARK   95  A    between atoms: _238  and  _239
REMARK   96  A    between atoms: _242  and  _244
REMARK   97  A    between atoms: _244  and  _245
REMARK   98  A    between atoms: _244  and  _247
REMARK   99  A    between atoms: _247  and  _248
REMARK  100  A    between atoms: _251  and  _253
REMARK  101  A    between atoms: _253  and  _254
REMARK  102  A    between atoms: _253  and  _256
REMARK  103  A    between atoms: _259  and  _261
REMARK  104  A    between atoms: _261  and  _262
REMARK  105  A    between atoms: _261  and  _264
REMARK  106  A    between atoms: _267  and  _269
REMARK  107  A    between atoms: _269  and  _270
REMARK  108  A    between atoms: _269  and  _272
REMARK  109  A    between atoms: _272  and  _273
REMARK  110  A    between atoms: _276  and  _278
REMARK  111  A    between atoms: _278  and  _279
REMARK  112  A    between atoms: _278  and  _281
REMARK  113  A    between atoms: _281  and  _282
REMARK  114  A    between atoms: _285  and  _287
REMARK  115  A    between atoms: _287  and  _288
REMARK  116  A    between atoms: _287  and  _290
REMARK  117  A    between atoms: _290  and  _291
REMARK  118  A    between atoms: _297  and  _299
REMARK  119  A    between atoms: _299  and  _300
REMARK  120  A    between atoms: _299  and  _302
REMARK  121  A    between atoms: _302  and  _303
REMARK  122  A    between atoms: _309  and  _311
REMARK  123  A    between atoms: _311  and  _312
REMARK  124  A    between atoms: _314  and  _316
REMARK  125  A    between atoms: _316  and  _317
REMARK  126  A    between atoms: _316  and  _319
REMARK  127  A    between atoms: _319  and  _320
REMARK  128  A    between atoms: _320  and  _321
REMARK  129  A    between atoms: _324  and  _326
REMARK  130  A    between atoms: _326  and  _327
REMARK  131  A    between atoms: _326  and  _329
REMARK  132  A    between atoms: _329  and  _330
REMARK  133  A    between atoms: _330  and  _331
REMARK  134  A    between atoms: _331  and  _332
REMARK  135  A    between atoms: _332  and  _333
REMARK  136  A    between atoms: _337  and  _339
REMARK  137  A    between atoms: _339  and  _340
REMARK  138  A    between atoms: _339  and  _342
REMARK  139  A    between atoms: _342  and  _343
REMARK  140  A    between atoms: _346  and  _348
REMARK  141  A    between atoms: _348  and  _349
REMARK  142  A    between atoms: _348  and  _351
REMARK  143  A    between atoms: _351  and  _352
REMARK  144  A    between atoms: _357  and  _358
REMARK  145  A    between atoms: _360  and  _362
REMARK  146  A    between atoms: _362  and  _363
REMARK  147  A    between atoms: _362  and  _365
REMARK  148  A    between atoms: _365  and  _366
REMARK  149  A    between atoms: _366  and  _367
REMARK  150  A    between atoms: _372  and  _374
REMARK  151  A    between atoms: _374  and  _375
REMARK  152  A    between atoms: _374  and  _377
REMARK  153  A    between atoms: _377  and  _378
REMARK  154  A    between atoms: _381  and  _383
REMARK  155  A    between atoms: _383  and  _384
REMARK  156  A    between atoms: _383  and  _386
REMARK  157  A    between atoms: _386  and  _387
REMARK  158  A    between atoms: _390  and  _392
REMARK  159  A    between atoms: _392  and  _393
REMARK  160  A    between atoms: _392  and  _395
REMARK  161  A    between atoms: _398  and  _400
REMARK  162  A    between atoms: _400  and  _401
REMARK  163  A    between atoms: _403  and  _405
REMARK  164  A    between atoms: _405  and  _406
REMARK  165  A    between atoms: _405  and  _408
REMARK  166  A    between atoms: _412  and  _413
REMARK  167  A    between atoms: _418  and  _420
REMARK  168  A    between atoms: _420  and  _421
REMARK  169  A    between atoms: _420  and  _423
REMARK  170  A    between atoms: _423  and  _424
REMARK  171  A    between atoms: _427  and  _429
REMARK  172  A    between atoms: _429  and  _430
REMARK  173  A    between atoms: _429  and  _432
REMARK  174  A    between atoms: _435  and  _437
REMARK  175  A    between atoms: _437  and  _438
REMARK  176  A    between atoms: _437  and  _440
REMARK  177  A    between atoms: _440  and  _441
REMARK  178  A    between atoms: _441  and  _442
REMARK  179  A    between atoms: _442  and  _443
REMARK  180  A    between atoms: _452  and  _454
REMARK  181  A    between atoms: _454  and  _455
REMARK  182  A    between atoms: _454  and  _457
REMARK  183  A    between atoms: _457  and  _458
REMARK  184  A    between atoms: _458  and  _459
REMARK  185  A    between atoms: _462  and  _464
REMARK  186  A    between atoms: _464  and  _465
REMARK  187  A    between atoms: _464  and  _467
REMARK  188  A    between atoms: _467  and  _468
REMARK  189  A    between atoms: _471  and  _473
REMARK  190  A    between atoms: _473  and  _474
REMARK  191  A    between atoms: _477  and  _479
REMARK  192  A    between atoms: _479  and  _480
REMARK  193  A    between atoms: _479  and  _482
REMARK  194  A    between atoms: _482  and  _483
REMARK  195  A    between atoms: _483  and  _484
REMARK  196  A    between atoms: _486  and  _488
REMARK  197  A    between atoms: _488  and  _489
REMARK  198  A    between atoms: _488  and  _491
REMARK  199  A    between atoms: _491  and  _492
REMARK  200  A    between atoms: _494  and  _496
REMARK  201  A    between atoms: _496  and  _497
REMARK  202  A    between atoms: _496  and  _499
REMARK  203  A    between atoms: _499  and  _500
REMARK  204  A    between atoms: _502  and  _504
REMARK  205  A    between atoms: _504  and  _505
REMARK  206  A    between atoms: _504  and  _507
REMARK  207  A    between atoms: _507  and  _508
REMARK  208  A    between atoms: _508  and  _509
REMARK  209  A    between atoms: _509  and  _510
REMARK  210  A    between atoms: _519  and  _521
REMARK  211  A    between atoms: _521  and  _522
REMARK  212  A    between atoms: _521  and  _524
REMARK  213  A    between atoms: _524  and  _525
REMARK  214  A    between atoms: _530  and  _532
REMARK  215  A    between atoms: _532  and  _533
REMARK  216  A    between atoms: _532  and  _535
REMARK  217  A    between atoms: _535  and  _536
REMARK  218  A    between atoms: _539  and  _541
REMARK  219  A    between atoms: _541  and  _542
REMARK  220  A    between atoms: _541  and  _544
REMARK  221  A    between atoms: _544  and  _545
REMARK                            x       y       z     vdW  Elec       q    Type
REMARK                         _______ _______ _______ _____ _____    ______ ____
ROOT
ATOM      1  CA  LEU A   1      23.737   4.748  -4.175  0.00  0.00    +0.133 C 
ENDROOT
BRANCH   1   2
ATOM      2  N   LEU A   1      24.466   6.023  -4.155  0.00  0.00    -0.239 NA
ATOM      3  H   LEU A   1      23.937   6.917  -4.104  0.00  0.00    +0.142 HD
ENDBRANCH   1   2
BRANCH   1   4
ATOM      4  C   LEU A   1      22.735   4.887  -5.273  0.00  0.00    +0.224 C 
ATOM      5  O   LEU A   1      22.336   6.042  -5.636  0.00  0.00    -0.287 OA
ENDBRANCH   1   4
BRANCH   1   6
ATOM      6  CB  LEU A   1      22.936   4.453  -2.903  0.00  0.00    +0.025 C 
BRANCH   6   7
ATOM      7  CG  LEU A   1      23.412   4.875  -1.537  0.00  0.00    +0.002 C 
ATOM      8  CD2 LEU A   1      22.429   4.462  -0.457  0.00  0.00    +0.000 C 
ATOM      9  CD1 LEU A   1      24.742   4.208  -1.279  0.00  0.00    +0.000 C 
ENDBRANCH   6   7
ENDBRANCH   1   6
TORSDOF 4
REMARK  Name = ../refined-set-2016/3ioc/3ioc_pocket.pdb
REMARK  221 active torsions:
REMARK  status: ('A' for Active; 'I' for Inactive)
REMARK    1  A    between atoms: _1  and  _3
REMARK    2  A    between atoms: _3  and  _4
REMARK    3  A    between atoms: _3  and  _6
REMARK    4  A    between atoms: _10  and  _11
REMARK    5  A    between atoms: _16  and  _18
REMARK    6  A    between atoms: _18  and  _19
REMARK    7  A    between atoms: _18  and  _21
REMARK    8  A    between atoms: _21  and  _22
REMARK    9  A    between atoms: _25  and  _27
REMARK   10  A    between atoms: _27  and  _28
REMARK   11  A    between atoms: _27  and  _30
REMARK   12  A    between atoms: _30  and  _31
REMARK   13  A    between atoms: _31  and  _32
REMARK   14  A    between atoms: _34  and  _36
REMARK   15  A    between atoms: _36  and  _37
REMARK   16  A    between atoms: _39  and  _41
REMARK   17  A    between atoms: _41  and  _42
REMARK   18  A    between atoms: _45  and  _47
REMARK   19  A    between atoms: _47  and  _48
REMARK   20  A    between atoms: _47  and  _50
REMARK   21  A    between atoms: _50  and  _51
REMARK   22  A    between atoms: _54  and  _56
REMARK   23  A    between atoms: _56  and  _57
REMARK   24  A    between atoms: _56  and  _59
REMARK   25  A    between atoms: _59  and  _60
REMARK   26  A    between atoms: _65  and  _67
REMARK   27  A    between atoms: _67  and  _68
REMARK   28  A    between atoms: _67  and  _70
REMARK   29  A    between atoms: _70  and  _71
REMARK   30  A    between atoms: _71  and  _72
REMARK   31  A    between atoms: _75  and  _77
REMARK   32  A    between atoms: _77  and  _78
REMARK   33  A    between atoms: _80  and  _82
REMARK   34  A    between atoms: _82  and  _83
REMARK   35  A    between atoms: _82  and  _85
REMARK   36  A    between atoms: _85  and  _86
REMARK   37  A    between atoms: _91  and  _93
REMARK   38  A    between atoms: _93  and  _94
REMARK   39  A    between atoms: _93  and  _96
REMARK   40  A    between atoms: _96  and  _97
REMARK   41  A    between atoms: _100  and  _102
REMARK   42  A    between atoms: _102  and  _103
REMARK   43  A    between atoms: _106  and  _108
REMARK   44  A    between atoms: _108  and  _109
REMARK   45  A    between atoms: _108  and  _111
REMARK   46  A    between atoms: _111  and  _112
REMARK   47  A    between atoms: _115  and  _117
REMARK   48  A    between atoms: _117  and  _118
REMARK   49  A    between atoms: _117  and  _120
REMARK   50  A    between atoms: _123  and  _125
REMARK   51  A    between atoms: _125  and  _126
REMARK   52  A    between atoms: _125  and  _128
REMARK   53  A    between atoms: _128  and  _129
REMARK   54  A    between atoms: _131  and  _133
REMARK   55  A    between atoms: _133  and  _134
REMARK   56  A    between atoms: _133  and  _136
REMARK   57  A    between atoms: _136  and  _137
REMARK   58  A    between atoms: _140  and  _142
REMARK   59  A    between atoms: _142  and  _143
REMARK   60  A    between atoms: _142  and  _145
REMARK   61  A    between atoms: _145  and  _146
REMARK   62  A    between atoms: _152  and  _154
REMARK   63  A    between atoms: _154  and  _155
REMARK   64  A    between atoms: _154  and  _157
REMARK   65  A    between atoms: _160  and  _162
REMARK   66  A    between atoms: _162  and  _163
REMARK   67  A    between atoms: _162  and  _165
REMARK   68  A    between atoms: _165  and  _166
REMARK   69  A    between atoms: _171  and  _173
REMARK   70  A    between atoms: _173  and  _174
REMARK   71  A    between atoms: _173  and  _176
REMARK   72  A    between atoms: _176  and  _177
REMARK   73  A    between atoms: _177  and  _178
REMARK   74  A    between atoms: _183  and  _185
REMARK   75  A    between atoms: _185  and  _186
REMARK   76  A    between atoms: _185  and  _188
REMARK   77  A    between atoms: _188  and  _189
REMARK   78  A    between atoms: _194  and  _195
REMARK   79  A    between atoms: _197  and  _199
REMARK   80  A    between atoms: _199  and  _200
REMARK   81  A    between atoms: _199  and  _202
REMARK   82  A    between atoms: _202  and  _203
REMARK   83  A    between atoms: _208  and  _210
REMARK   84  A    between atoms: _210  and  _211
REMARK   85  A    between atoms: _210  and  _213
REMARK   86  A    between atoms: _213  and  _214
REMARK   87  A    between atoms: _220  and  _222
REMARK   88  A    between atoms: _222  and  _223
REMARK   89  A    between atoms: _225  and  _227
REMARK   90  A    between atoms: _227  and  _228
REMARK   91  A    between atoms: _227  and  _230
REMARK   92  A    between atoms: _233  and  _235
REMARK   93  A    between atoms: _235  and  _236
REMARK   94  A    between atoms: _235  and  _238
REMARK   95  A    between atoms: _238  and  _239
REMARK   96  A    between atoms: _242  and  _244
REMARK   97  A    between atoms: _244  and  _245
REMARK   98  A    between atoms: _244  and  _247
REMARK   99  A    between atoms: _247  and  _248
REMARK  100  A    between atoms: _251  and  _253
REMARK  101  A    between atoms: _253  and  _254
REMARK  102  A    between atoms: _253  and  _256
REMARK  103  A    between atoms: _259  and  _261
REMARK  104  A    between atoms: _261  and  _262
REMARK  105  A    between atoms: _261  and  _264
REMARK  106  A    between atoms: _267  and  _269
REMARK  107  A    between atoms: _269  and  _270
REMARK  108  A    between atoms: _269  and  _272
REMARK  109  A    between atoms: _272  and  _273
REMARK  110  A    between atoms: _276  and  _278
REMARK  111  A    between atoms: _278  and  _279
REMARK  112  A    between atoms: _278  and  _281
REMARK  113  A    between atoms: _281  and  _282
REMARK  114  A    between atoms: _285  and  _287
REMARK  115  A    between atoms: _287  and  _288
REMARK  116  A    between atoms: _287  and  _290
REMARK  117  A    between atoms: _290  and  _291
REMARK  118  A    between atoms: _297  and  _299
REMARK  119  A    between atoms: _299  and  _300
REMARK  120  A    between atoms: _299  and  _302
REMARK  121  A    between atoms: _302  and  _303
REMARK  122  A    between atoms: _309  and  _311
REMARK  123  A    between atoms: _311  and  _312
REMARK  124  A    between atoms: _314  and  _316
REMARK  125  A    between atoms: _316  and  _317
REMARK  126  A    between atoms: _316  and  _319
REMARK  127  A    between atoms: _319  and  _320
REMARK  128  A    between atoms: _320  and  _321
REMARK  129  A    between atoms: _324  and  _326
REMARK  130  A    between atoms: _326  and  _327
REMARK  131  A    between atoms: _326  and  _329
REMARK  132  A    between atoms: _329  and  _330
REMARK  133  A    between atoms: _330  and  _331
REMARK  134  A    between atoms: _331  and  _332
REMARK  135  A    between atoms: _332  and  _333
REMARK  136  A    between atoms: _337  and  _339
REMARK  137  A    between atoms: _339  and  _340
REMARK  138  A    between atoms: _339  and  _342
REMARK  139  A    between atoms: _342  and  _343
REMARK  140  A    between atoms: _346  and  _348
REMARK  141  A    between atoms: _348  and  _349
REMARK  142  A    between atoms: _348  and  _351
REMARK  143  A    between atoms: _351  and  _352
REMARK  144  A    between atoms: _357  and  _358
REMARK  145  A    between atoms: _360  and  _362
REMARK  146  A    between atoms: _362  and  _363
REMARK  147  A    between atoms: _362  and  _365
REMARK  148  A    between atoms: _365  and  _366
REMARK  149  A    between atoms: _366  and  _367
REMARK  150  A    between atoms: _372  and  _374
REMARK  151  A    between atoms: _374  and  _375
REMARK  152  A    between atoms: _374  and  _377
REMARK  153  A    between atoms: _377  and  _378
REMARK  154  A    between atoms: _381  and  _383
REMARK  155  A    between atoms: _383  and  _384
REMARK  156  A    between atoms: _383  and  _386
REMARK  157  A    between atoms: _386  and  _387
REMARK  158  A    between atoms: _390  and  _392
REMARK  159  A    between atoms: _392  and  _393
REMARK  160  A    between atoms: _392  and  _395
REMARK  161  A    between atoms: _398  and  _400
REMARK  162  A    between atoms: _400  and  _401
REMARK  163  A    between atoms: _403  and  _405
REMARK  164  A    between atoms: _405  and  _406
REMARK  165  A    between atoms: _405  and  _408
REMARK  166  A    between atoms: _412  and  _413
REMARK  167  A    between atoms: _418  and  _420
REMARK  168  A    between atoms: _420  and  _421
REMARK  169  A    between atoms: _420  and  _423
REMARK  170  A    between atoms: _423  and  _424
REMARK  171  A    between atoms: _427  and  _429
REMARK  172  A    between atoms: _429  and  _430
REMARK  173  A    between atoms: _429  and  _432
REMARK  174  A    between atoms: _435  and  _437
REMARK  175  A    between atoms: _437  and  _438
REMARK  176  A    between atoms: _437  and  _440
REMARK  177  A    between atoms: _440  and  _441
REMARK  178  A    between atoms: _441  and  _442
REMARK  179  A    between atoms: _442  and  _443
REMARK  180  A    between atoms: _452  and  _454
REMARK  181  A    between atoms: _454  and  _455
REMARK  182  A    between atoms: _454  and  _457
REMARK  183  A    between atoms: _457  and  _458
REMARK  184  A    between atoms: _458  and  _459
REMARK  185  A    between atoms: _462  and  _464
REMARK  186  A    between atoms: _464  and  _465
REMARK  187  A    between atoms: _464  and  _467
REMARK  188  A    between atoms: _467  and  _468
REMARK  189  A    between atoms: _471  and  _473
REMARK  190  A    between atoms: _473  and  _474
REMARK  191  A    between atoms: _477  and  _479
REMARK  192  A    between atoms: _479  and  _480
REMARK  193  A    between atoms: _479  and  _482
REMARK  194  A    between atoms: _482  and  _483
REMARK  195  A    between atoms: _483  and  _484
REMARK  196  A    between atoms: _486  and  _488
REMARK  197  A    between atoms: _488  and  _489
REMARK  198  A    between atoms: _488  and  _491
REMARK  199  A    between atoms: _491  and  _492
REMARK  200  A    between atoms: _494  and  _496
REMARK  201  A    between atoms: _496  and  _497
REMARK  202  A    between atoms: _496  and  _499
REMARK  203  A    between atoms: _499  and  _500
REMARK  204  A    between atoms: _502  and  _504
REMARK  205  A    between atoms: _504  and  _505
REMARK  206  A    between atoms: _504  and  _507
REMARK  207  A    between atoms: _507  and  _508
REMARK  208  A    between atoms: _508  and  _509
REMARK  209  A    between atoms: _509  and  _510
REMARK  210  A    between atoms: _519  and  _521
REMARK  211  A    between atoms: _521  and  _522
REMARK  212  A    between atoms: _521  and  _524
REMARK  213  A    between atoms: _524  and  _525
REMARK  214  A    between atoms: _530  and  _532
REMARK  215  A    between atoms: _532  and  _533
REMARK  216  A    between atoms: _532  and  _535
REMARK  217  A    between atoms: _535  and  _536
REMARK  218  A    between atoms: _539  and  _541
REMARK  219  A    between atoms: _541  and  _542
REMARK  220  A    between atoms: _541  and  _544
REMARK  221  A    between atoms: _544  and  _545
REMARK                            x       y       z     vdW  Elec       q    Type
REMARK                         _______ _______ _______ _____ _____    ______ ____
ROOT
ATOM      1  CB  ASN A   1      18.787  -0.188  -6.187  0.00  0.00    +0.110 C 
ENDROOT
BRANCH   1   2
ATOM      2  CG  ASN A   1      17.512   0.442  -5.764  0.00  0.00    +0.221 C 
ATOM      3  ND2 ASN A   1      17.638   1.467  -4.908  0.00  0.00    -0.329 N 
ATOM      4 HD21 ASN A   1      18.580   1.746  -4.566  0.00  0.00    +0.145 HD
ATOM      5 HD22 ASN A   1      16.794   1.983  -4.587  0.00  0.00    +0.145 HD
ATOM      6  OD1 ASN A   1      16.399   0.052  -6.218  0.00  0.00    -0.275 OA
ENDBRANCH   1   2
BRANCH   1   7
ATOM      7  CA  ASN A   1      19.289   0.375  -7.500  0.00  0.00    +0.142 C 
BRANCH   7   8
ATOM      8  N   ASN A   1      19.805   1.729  -7.365  0.00  0.00    -0.239 NA
ATOM      9  H   ASN A   1      19.214   2.516  -7.701  0.00  0.00    +0.142 HD
ENDBRANCH   7   8
BRANCH   7  10
ATOM     10  C   ASN A   1      18.193   0.358  -8.598  0.00  0.00    +0.225 C 
ATOM     11  O   ASN A   1      17.782   1.431  -9.118  0.00  0.00    -0.287 OA
ENDBRANCH   7  10
ENDBRANCH   1   7
TORSDOF 4
REMARK  Name = ../refined-set-2016/3ioc/3ioc_pocket.pdb
REMARK  221 active torsions:
REMARK  status: ('A' for Active; 'I' for Inactive)
REMARK    1  A    between atoms: _1  and  _3
REMARK    2  A    between atoms: _3  and  _4
REMARK    3  A    between atoms: _3  and  _6
REMARK    4  A    between atoms: _10  and  _11
REMARK    5  A    between atoms: _16  and  _18
REMARK    6  A    between atoms: _18  and  _19
REMARK    7  A    between atoms: _18  and  _21
REMARK    8  A    between atoms: _21  and  _22
REMARK    9  A    between atoms: _25  and  _27
REMARK   10  A    between atoms: _27  and  _28
REMARK   11  A    between atoms: _27  and  _30
REMARK   12  A    between atoms: _30  and  _31
REMARK   13  A    between atoms: _31  and  _32
REMARK   14  A    between atoms: _34  and  _36
REMARK   15  A    between atoms: _36  and  _37
REMARK   16  A    between atoms: _39  and  _41
REMARK   17  A    between atoms: _41  and  _42
REMARK   18  A    between atoms: _45  and  _47
REMARK   19  A    between atoms: _47  and  _48
REMARK   20  A    between atoms: _47  and  _50
REMARK   21  A    between atoms: _50  and  _51
REMARK   22  A    between atoms: _54  and  _56
REMARK   23  A    between atoms: _56  and  _57
REMARK   24  A    between atoms: _56  and  _59
REMARK   25  A    between atoms: _59  and  _60
REMARK   26  A    between atoms: _65  and  _67
REMARK   27  A    between atoms: _67  and  _68
REMARK   28  A    between atoms: _67  and  _70
REMARK   29  A    between atoms: _70  and  _71
REMARK   30  A    between atoms: _71  and  _72
REMARK   31  A    between atoms: _75  and  _77
REMARK   32  A    between atoms: _77  and  _78
REMARK   33  A    between atoms: _80  and  _82
REMARK   34  A    between atoms: _82  and  _83
REMARK   35  A    between atoms: _82  and  _85
REMARK   36  A    between atoms: _85  and  _86
REMARK   37  A    between atoms: _91  and  _93
REMARK   38  A    between atoms: _93  and  _94
REMARK   39  A    between atoms: _93  and  _96
REMARK   40  A    between atoms: _96  and  _97
REMARK   41  A    between atoms: _100  and  _102
REMARK   42  A    between atoms: _102  and  _103
REMARK   43  A    between atoms: _106  and  _108
REMARK   44  A    between atoms: _108  and  _109
REMARK   45  A    between atoms: _108  and  _111
REMARK   46  A    between atoms: _111  and  _112
REMARK   47  A    between atoms: _115  and  _117
REMARK   48  A    between atoms: _117  and  _118
REMARK   49  A    between atoms: _117  and  _120
REMARK   50  A    between atoms: _123  and  _125
REMARK   51  A    between atoms: _125  and  _126
REMARK   52  A    between atoms: _125  and  _128
REMARK   53  A    between atoms: _128  and  _129
REMARK   54  A    between atoms: _131  and  _133
REMARK   55  A    between atoms: _133  and  _134
REMARK   56  A    between atoms: _133  and  _136
REMARK   57  A    between atoms: _136  and  _137
REMARK   58  A    between atoms: _140  and  _142
REMARK   59  A    between atoms: _142  and  _143
REMARK   60  A    between atoms: _142  and  _145
REMARK   61  A    between atoms: _145  and  _146
REMARK   62  A    between atoms: _152  and  _154
REMARK   63  A    between atoms: _154  and  _155
REMARK   64  A    between atoms: _154  and  _157
REMARK   65  A    between atoms: _160  and  _162
REMARK   66  A    between atoms: _162  and  _163
REMARK   67  A    between atoms: _162  and  _165
REMARK   68  A    between atoms: _165  and  _166
REMARK   69  A    between atoms: _171  and  _173
REMARK   70  A    between atoms: _173  and  _174
REMARK   71  A    between atoms: _173  and  _176
REMARK   72  A    between atoms: _176  and  _177
REMARK   73  A    between atoms: _177  and  _178
REMARK   74  A    between atoms: _183  and  _185
REMARK   75  A    between atoms: _185  and  _186
REMARK   76  A    between atoms: _185  and  _188
REMARK   77  A    between atoms: _188  and  _189
REMARK   78  A    between atoms: _194  and  _195
REMARK   79  A    between atoms: _197  and  _199
REMARK   80  A    between atoms: _199  and  _200
REMARK   81  A    between atoms: _199  and  _202
REMARK   82  A    between atoms: _202  and  _203
REMARK   83  A    between atoms: _208  and  _210
REMARK   84  A    between atoms: _210  and  _211
REMARK   85  A    between atoms: _210  and  _213
REMARK   86  A    between atoms: _213  and  _214
REMARK   87  A    between atoms: _220  and  _222
REMARK   88  A    between atoms: _222  and  _223
REMARK   89  A    between atoms: _225  and  _227
REMARK   90  A    between atoms: _227  and  _228
REMARK   91  A    between atoms: _227  and  _230
REMARK   92  A    between atoms: _233  and  _235
REMARK   93  A    between atoms: _235  and  _236
REMARK   94  A    between atoms: _235  and  _238
REMARK   95  A    between atoms: _238  and  _239
REMARK   96  A    between atoms: _242  and  _244
REMARK   97  A    between atoms: _244  and  _245
REMARK   98  A    between atoms: _244  and  _247
REMARK   99  A    between atoms: _247  and  _248
REMARK  100  A    between atoms: _251  and  _253
REMARK  101  A    between atoms: _253  and  _254
REMARK  102  A    between atoms: _253  and  _256
REMARK  103  A    between atoms: _259  and  _261
REMARK  104  A    between atoms: _261  and  _262
REMARK  105  A    between atoms: _261  and  _264
REMARK  106  A    between atoms: _267  and  _269
REMARK  107  A    between atoms: _269  and  _270
REMARK  108  A    between atoms: _269  and  _272
REMARK  109  A    between atoms: _272  and  _273
REMARK  110  A    between atoms: _276  and  _278
REMARK  111  A    between atoms: _278  and  _279
REMARK  112  A    between atoms: _278  and  _281
REMARK  113  A    between atoms: _281  and  _282
REMARK  114  A    between atoms: _285  and  _287
REMARK  115  A    between atoms: _287  and  _288
REMARK  116  A    between atoms: _287  and  _290
REMARK  117  A    between atoms: _290  and  _291
REMARK  118  A    between atoms: _297  and  _299
REMARK  119  A    between atoms: _299  and  _300
REMARK  120  A    between atoms: _299  and  _302
REMARK  121  A    between atoms: _302  and  _303
REMARK  122  A    between atoms: _309  and  _311
REMARK  123  A    between atoms: _311  and  _312
REMARK  124  A    between atoms: _314  and  _316
REMARK  125  A    between atoms: _316  and  _317
REMARK  126  A    between atoms: _316  and  _319
REMARK  127  A    between atoms: _319  and  _320
REMARK  128  A    between atoms: _320  and  _321
REMARK  129  A    between atoms: _324  and  _326
REMARK  130  A    between atoms: _326  and  _327
REMARK  131  A    between atoms: _326  and  _329
REMARK  132  A    between atoms: _329  and  _330
REMARK  133  A    between atoms: _330  and  _331
REMARK  134  A    between atoms: _331  and  _332
REMARK  135  A    between atoms: _332  and  _333
REMARK  136  A    between atoms: _337  and  _339
REMARK  137  A    between atoms: _339  and  _340
REMARK  138  A    between atoms: _339  and  _342
REMARK  139  A    between atoms: _342  and  _343
REMARK  140  A    between atoms: _346  and  _348
REMARK  141  A    between atoms: _348  and  _349
REMARK  142  A    between atoms: _348  and  _351
REMARK  143  A    between atoms: _351  and  _352
REMARK  144  A    between atoms: _357  and  _358
REMARK  145  A    between atoms: _360  and  _362
REMARK  146  A    between atoms: _362  and  _363
REMARK  147  A    between atoms: _362  and  _365
REMARK  148  A    between atoms: _365  and  _366
REMARK  149  A    between atoms: _366  and  _367
REMARK  150  A    between atoms: _372  and  _374
REMARK  151  A    between atoms: _374  and  _375
REMARK  152  A    between atoms: _374  and  _377
REMARK  153  A    between atoms: _377  and  _378
REMARK  154  A    between atoms: _381  and  _383
REMARK  155  A    between atoms: _383  and  _384
REMARK  156  A    between atoms: _383  and  _386
REMARK  157  A    between atoms: _386  and  _387
REMARK  158  A    between atoms: _390  and  _392
REMARK  159  A    between atoms: _392  and  _393
REMARK  160  A    between atoms: _392  and  _395
REMARK  161  A    between atoms: _398  and  _400
REMARK  162  A    between atoms: _400  and  _401
REMARK  163  A    between atoms: _403  and  _405
REMARK  164  A    between atoms: _405  and  _406
REMARK  165  A    between atoms: _405  and  _408
REMARK  166  A    between atoms: _412  and  _413
REMARK  167  A    between atoms: _418  and  _420
REMARK  168  A    between atoms: _420  and  _421
REMARK  169  A    between atoms: _420  and  _423
REMARK  170  A    between atoms: _423  and  _424
REMARK  171  A    between atoms: _427  and  _429
REMARK  172  A    between atoms: _429  and  _430
REMARK  173  A    between atoms: _429  and  _432
REMARK  174  A    between atoms: _435  and  _437
REMARK  175  A    between atoms: _437  and  _438
REMARK  176  A    between atoms: _437  and  _440
REMARK  177  A    between atoms: _440  and  _441
REMARK  178  A    between atoms: _441  and  _442
REMARK  179  A    between atoms: _442  and  _443
REMARK  180  A    between atoms: _452  and  _454
REMARK  181  A    between atoms: _454  and  _455
REMARK  182  A    between atoms: _454  and  _457
REMARK  183  A    between atoms: _457  and  _458
REMARK  184  A    between atoms: _458  and  _459
REMARK  185  A    between atoms: _462  and  _464
REMARK  186  A    between atoms: _464  and  _465
REMARK  187  A    between atoms: _464  and  _467
REMARK  188  A    between atoms: _467  and  _468
REMARK  189  A    between atoms: _471  and  _473
REMARK  190  A    between atoms: _473  and  _474
REMARK  191  A    between atoms: _477  and  _479
REMARK  192  A    between atoms: _479  and  _480
REMARK  193  A    between atoms: _479  and  _482
REMARK  194  A    between atoms: _482  and  _483
REMARK  195  A    between atoms: _483  and  _484
REMARK  196  A    between atoms: _486  and  _488
REMARK  197  A    between atoms: _488  and  _489
REMARK  198  A    between atoms: _488  and  _491
REMARK  199  A    between atoms: _491  and  _492
REMARK  200  A    between atoms: _494  and  _496
REMARK  201  A    between atoms: _496  and  _497
REMARK  202  A    between atoms: _496  and  _499
REMARK  203  A    between atoms: _499  and  _500
REMARK  204  A    between atoms: _502  and  _504
REMARK  205  A    between atoms: _504  and  _505
REMARK  206  A    between atoms: _504  and  _507
REMARK  207  A    between atoms: _507  and  _508
REMARK  208  A    between atoms: _508  and  _509
REMARK  209  A    between atoms: _509  and  _510
REMARK  210  A    between atoms: _519  and  _521
REMARK  211  A    between atoms: _521  and  _522
REMARK  212  A    between atoms: _521  and  _524
REMARK  213  A    between atoms: _524  and  _525
REMARK  214  A    between atoms: _530  and  _532
REMARK  215  A    between atoms: _532  and  _533
REMARK  216  A    between atoms: _532  and  _535
REMARK  217  A    between atoms: _535  and  _536
REMARK  218  A    between atoms: _539  and  _541
REMARK  219  A    between atoms: _541  and  _542
REMARK  220  A    between atoms: _541  and  _544
REMARK  221  A    between atoms: _544  and  _545
REMARK                            x       y       z     vdW  Elec       q    Type
REMARK                         _______ _______ _______ _____ _____    ______ ____
ROOT
ATOM      1  O   HOH     1      12.690   3.367  -8.309  0.00  0.00    +0.000 OA
ENDROOT
TORSDOF 0
REMARK  Name = ../refined-set-2016/3ioc/3ioc_pocket.pdb
REMARK  221 active torsions:
REMARK  status: ('A' for Active; 'I' for Inactive)
REMARK    1  A    between atoms: _1  and  _3
REMARK    2  A    between atoms: _3  and  _4
REMARK    3  A    between atoms: _3  and  _6
REMARK    4  A    between atoms: _10  and  _11
REMARK    5  A    between atoms: _16  and  _18
REMARK    6  A    between atoms: _18  and  _19
REMARK    7  A    between atoms: _18  and  _21
REMARK    8  A    between atoms: _21  and  _22
REMARK    9  A    between atoms: _25  and  _27
REMARK   10  A    between atoms: _27  and  _28
REMARK   11  A    between atoms: _27  and  _30
REMARK   12  A    between atoms: _30  and  _31
REMARK   13  A    between atoms: _31  and  _32
REMARK   14  A    between atoms: _34  and  _36
REMARK   15  A    between atoms: _36  and  _37
REMARK   16  A    between atoms: _39  and  _41
REMARK   17  A    between atoms: _41  and  _42
REMARK   18  A    between atoms: _45  and  _47
REMARK   19  A    between atoms: _47  and  _48
REMARK   20  A    between atoms: _47  and  _50
REMARK   21  A    between atoms: _50  and  _51
REMARK   22  A    between atoms: _54  and  _56
REMARK   23  A    between atoms: _56  and  _57
REMARK   24  A    between atoms: _56  and  _59
REMARK   25  A    between atoms: _59  and  _60
REMARK   26  A    between atoms: _65  and  _67
REMARK   27  A    between atoms: _67  and  _68
REMARK   28  A    between atoms: _67  and  _70
REMARK   29  A    between atoms: _70  and  _71
REMARK   30  A    between atoms: _71  and  _72
REMARK   31  A    between atoms: _75  and  _77
REMARK   32  A    between atoms: _77  and  _78
REMARK   33  A    between atoms: _80  and  _82
REMARK   34  A    between atoms: _82  and  _83
REMARK   35  A    between atoms: _82  and  _85
REMARK   36  A    between atoms: _85  and  _86
REMARK   37  A    between atoms: _91  and  _93
REMARK   38  A    between atoms: _93  and  _94
REMARK   39  A    between atoms: _93  and  _96
REMARK   40  A    between atoms: _96  and  _97
REMARK   41  A    between atoms: _100  and  _102
REMARK   42  A    between atoms: _102  and  _103
REMARK   43  A    between atoms: _106  and  _108
REMARK   44  A    between atoms: _108  and  _109
REMARK   45  A    between atoms: _108  and  _111
REMARK   46  A    between atoms: _111  and  _112
REMARK   47  A    between atoms: _115  and  _117
REMARK   48  A    between atoms: _117  and  _118
REMARK   49  A    between atoms: _117  and  _120
REMARK   50  A    between atoms: _123  and  _125
REMARK   51  A    between atoms: _125  and  _126
REMARK   52  A    between atoms: _125  and  _128
REMARK   53  A    between atoms: _128  and  _129
REMARK   54  A    between atoms: _131  and  _133
REMARK   55  A    between atoms: _133  and  _134
REMARK   56  A    between atoms: _133  and  _136
REMARK   57  A    between atoms: _136  and  _137
REMARK   58  A    between atoms: _140  and  _142
REMARK   59  A    between atoms: _142  and  _143
REMARK   60  A    between atoms: _142  and  _145
REMARK   61  A    between atoms: _145  and  _146
REMARK   62  A    between atoms: _152  and  _154
REMARK   63  A    between atoms: _154  and  _155
REMARK   64  A    between atoms: _154  and  _157
REMARK   65  A    between atoms: _160  and  _162
REMARK   66  A    between atoms: _162  and  _163
REMARK   67  A    between atoms: _162  and  _165
REMARK   68  A    between atoms: _165  and  _166
REMARK   69  A    between atoms: _171  and  _173
REMARK   70  A    between atoms: _173  and  _174
REMARK   71  A    between atoms: _173  and  _176
REMARK   72  A    between atoms: _176  and  _177
REMARK   73  A    between atoms: _177  and  _178
REMARK   74  A    between atoms: _183  and  _185
REMARK   75  A    between atoms: _185  and  _186
REMARK   76  A    between atoms: _185  and  _188
REMARK   77  A    between atoms: _188  and  _189
REMARK   78  A    between atoms: _194  and  _195
REMARK   79  A    between atoms: _197  and  _199
REMARK   80  A    between atoms: _199  and  _200
REMARK   81  A    between atoms: _199  and  _202
REMARK   82  A    between atoms: _202  and  _203
REMARK   83  A    between atoms: _208  and  _210
REMARK   84  A    between atoms: _210  and  _211
REMARK   85  A    between atoms: _210  and  _213
REMARK   86  A    between atoms: _213  and  _214
REMARK   87  A    between atoms: _220  and  _222
REMARK   88  A    between atoms: _222  and  _223
REMARK   89  A    between atoms: _225  and  _227
REMARK   90  A    between atoms: _227  and  _228
REMARK   91  A    between atoms: _227  and  _230
REMARK   92  A    between atoms: _233  and  _235
REMARK   93  A    between atoms: _235  and  _236
REMARK   94  A    between atoms: _235  and  _238
REMARK   95  A    between atoms: _238  and  _239
REMARK   96  A    between atoms: _242  and  _244
REMARK   97  A    between atoms: _244  and  _245
REMARK   98  A    between atoms: _244  and  _247
REMARK   99  A    between atoms: _247  and  _248
REMARK  100  A    between atoms: _251  and  _253
REMARK  101  A    between atoms: _253  and  _254
REMARK  102  A    between atoms: _253  and  _256
REMARK  103  A    between atoms: _259  and  _261
REMARK  104  A    between atoms: _261  and  _262
REMARK  105  A    between atoms: _261  and  _264
REMARK  106  A    between atoms: _267  and  _269
REMARK  107  A    between atoms: _269  and  _270
REMARK  108  A    between atoms: _269  and  _272
REMARK  109  A    between atoms: _272  and  _273
REMARK  110  A    between atoms: _276  and  _278
REMARK  111  A    between atoms: _278  and  _279
REMARK  112  A    between atoms: _278  and  _281
REMARK  113  A    between atoms: _281  and  _282
REMARK  114  A    between atoms: _285  and  _287
REMARK  115  A    between atoms: _287  and  _288
REMARK  116  A    between atoms: _287  and  _290
REMARK  117  A    between atoms: _290  and  _291
REMARK  118  A    between atoms: _297  and  _299
REMARK  119  A    between atoms: _299  and  _300
REMARK  120  A    between atoms: _299  and  _302
REMARK  121  A    between atoms: _302  and  _303
REMARK  122  A    between atoms: _309  and  _311
REMARK  123  A    between atoms: _311  and  _312
REMARK  124  A    between atoms: _314  and  _316
REMARK  125  A    between atoms: _316  and  _317
REMARK  126  A    between atoms: _316  and  _319
REMARK  127  A    between atoms: _319  and  _320
REMARK  128  A    between atoms: _320  and  _321
REMARK  129  A    between atoms: _324  and  _326
REMARK  130  A    between atoms: _326  and  _327
REMARK  131  A    between atoms: _326  and  _329
REMARK  132  A    between atoms: _329  and  _330
REMARK  133  A    between atoms: _330  and  _331
REMARK  134  A    between atoms: _331  and  _332
REMARK  135  A    between atoms: _332  and  _333
REMARK  136  A    between atoms: _337  and  _339
REMARK  137  A    between atoms: _339  and  _340
REMARK  138  A    between atoms: _339  and  _342
REMARK  139  A    between atoms: _342  and  _343
REMARK  140  A    between atoms: _346  and  _348
REMARK  141  A    between atoms: _348  and  _349
REMARK  142  A    between atoms: _348  and  _351
REMARK  143  A    between atoms: _351  and  _352
REMARK  144  A    between atoms: _357  and  _358
REMARK  145  A    between atoms: _360  and  _362
REMARK  146  A    between atoms: _362  and  _363
REMARK  147  A    between atoms: _362  and  _365
REMARK  148  A    between atoms: _365  and  _366
REMARK  149  A    between atoms: _366  and  _367
REMARK  150  A    between atoms: _372  and  _374
REMARK  151  A    between atoms: _374  and  _375
REMARK  152  A    between atoms: _374  and  _377
REMARK  153  A    between atoms: _377  and  _378
REMARK  154  A    between atoms: _381  and  _383
REMARK  155  A    between atoms: _383  and  _384
REMARK  156  A    between atoms: _383  and  _386
REMARK  157  A    between atoms: _386  and  _387
REMARK  158  A    between atoms: _390  and  _392
REMARK  159  A    between atoms: _392  and  _393
REMARK  160  A    between atoms: _392  and  _395
REMARK  161  A    between atoms: _398  and  _400
REMARK  162  A    between atoms: _400  and  _401
REMARK  163  A    between atoms: _403  and  _405
REMARK  164  A    between atoms: _405  and  _406
REMARK  165  A    between atoms: _405  and  _408
REMARK  166  A    between atoms: _412  and  _413
REMARK  167  A    between atoms: _418  and  _420
REMARK  168  A    between atoms: _420  and  _421
REMARK  169  A    between atoms: _420  and  _423
REMARK  170  A    between atoms: _423  and  _424
REMARK  171  A    between atoms: _427  and  _429
REMARK  172  A    between atoms: _429  and  _430
REMARK  173  A    between atoms: _429  and  _432
REMARK  174  A    between atoms: _435  and  _437
REMARK  175  A    between atoms: _437  and  _438
REMARK  176  A    between atoms: _437  and  _440
REMARK  177  A    between atoms: _440  and  _441
REMARK  178  A    between atoms: _441  and  _442
REMARK  179  A    between atoms: _442  and  _443
REMARK  180  A    between atoms: _452  and  _454
REMARK  181  A    between atoms: _454  and  _455
REMARK  182  A    between atoms: _454  and  _457
REMARK  183  A    between atoms: _457  and  _458
REMARK  184  A    between atoms: _458  and  _459
REMARK  185  A    between atoms: _462  and  _464
REMARK  186  A    between atoms: _464  and  _465
REMARK  187  A    between atoms: _464  and  _467
REMARK  188  A    between atoms: _467  and  _468
REMARK  189  A    between atoms: _471  and  _473
REMARK  190  A    between atoms: _473  and  _474
REMARK  191  A    between atoms: _477  and  _479
REMARK  192  A    between atoms: _479  and  _480
REMARK  193  A    between atoms: _479  and  _482
REMARK  194  A    between atoms: _482  and  _483
REMARK  195  A    between atoms: _483  and  _484
REMARK  196  A    between atoms: _486  and  _488
REMARK  197  A    between atoms: _488  and  _489
REMARK  198  A    between atoms: _488  and  _491
REMARK  199  A    between atoms: _491  and  _492
REMARK  200  A    between atoms: _494  and  _496
REMARK  201  A    between atoms: _496  and  _497
REMARK  202  A    between atoms: _496  and  _499
REMARK  203  A    between atoms: _499  and  _500
REMARK  204  A    between atoms: _502  and  _504
REMARK  205  A    between atoms: _504  and  _505
REMARK  206  A    between atoms: _504  and  _507
REMARK  207  A    between atoms: _507  and  _508
REMARK  208  A    between atoms: _508  and  _509
REMARK  209  A    between atoms: _509  and  _510
REMARK  210  A    between atoms: _519  and  _521
REMARK  211  A    between atoms: _521  and  _522
REMARK  212  A    between atoms: _521  and  _524
REMARK  213  A    between atoms: _524  and  _525
REMARK  214  A    between atoms: _530  and  _532
REMARK  215  A    between atoms: _532  and  _533
REMARK  216  A    between atoms: _532  and  _535
REMARK  217  A    between atoms: _535  and  _536
REMARK  218  A    between atoms: _539  and  _541
REMARK  219  A    between atoms: _541  and  _542
REMARK  220  A    between atoms: _541  and  _544
REMARK  221  A    between atoms: _544  and  _545
REMARK                            x       y       z     vdW  Elec       q    Type
REMARK                         _______ _______ _______ _____ _____    ______ ____
ROOT
ATOM      1  O   HOH     1      10.675   9.416   3.490  0.00  0.00    +0.000 OA
ENDROOT
TORSDOF 0
REMARK  Name = ../refined-set-2016/3ioc/3ioc_pocket.pdb
REMARK  221 active torsions:
REMARK  status: ('A' for Active; 'I' for Inactive)
REMARK    1  A    between atoms: _1  and  _3
REMARK    2  A    between atoms: _3  and  _4
REMARK    3  A    between atoms: _3  and  _6
REMARK    4  A    between atoms: _10  and  _11
REMARK    5  A    between atoms: _16  and  _18
REMARK    6  A    between atoms: _18  and  _19
REMARK    7  A    between atoms: _18  and  _21
REMARK    8  A    between atoms: _21  and  _22
REMARK    9  A    between atoms: _25  and  _27
REMARK   10  A    between atoms: _27  and  _28
REMARK   11  A    between atoms: _27  and  _30
REMARK   12  A    between atoms: _30  and  _31
REMARK   13  A    between atoms: _31  and  _32
REMARK   14  A    between atoms: _34  and  _36
REMARK   15  A    between atoms: _36  and  _37
REMARK   16  A    between atoms: _39  and  _41
REMARK   17  A    between atoms: _41  and  _42
REMARK   18  A    between atoms: _45  and  _47
REMARK   19  A    between atoms: _47  and  _48
REMARK   20  A    between atoms: _47  and  _50
REMARK   21  A    between atoms: _50  and  _51
REMARK   22  A    between atoms: _54  and  _56
REMARK   23  A    between atoms: _56  and  _57
REMARK   24  A    between atoms: _56  and  _59
REMARK   25  A    between atoms: _59  and  _60
REMARK   26  A    between atoms: _65  and  _67
REMARK   27  A    between atoms: _67  and  _68
REMARK   28  A    between atoms: _67  and  _70
REMARK   29  A    between atoms: _70  and  _71
REMARK   30  A    between atoms: _71  and  _72
REMARK   31  A    between atoms: _75  and  _77
REMARK   32  A    between atoms: _77  and  _78
REMARK   33  A    between atoms: _80  and  _82
REMARK   34  A    between atoms: _82  and  _83
REMARK   35  A    between atoms: _82  and  _85
REMARK   36  A    between atoms: _85  and  _86
REMARK   37  A    between atoms: _91  and  _93
REMARK   38  A    between atoms: _93  and  _94
REMARK   39  A    between atoms: _93  and  _96
REMARK   40  A    between atoms: _96  and  _97
REMARK   41  A    between atoms: _100  and  _102
REMARK   42  A    between atoms: _102  and  _103
REMARK   43  A    between atoms: _106  and  _108
REMARK   44  A    between atoms: _108  and  _109
REMARK   45  A    between atoms: _108  and  _111
REMARK   46  A    between atoms: _111  and  _112
REMARK   47  A    between atoms: _115  and  _117
REMARK   48  A    between atoms: _117  and  _118
REMARK   49  A    between atoms: _117  and  _120
REMARK   50  A    between atoms: _123  and  _125
REMARK   51  A    between atoms: _125  and  _126
REMARK   52  A    between atoms: _125  and  _128
REMARK   53  A    between atoms: _128  and  _129
REMARK   54  A    between atoms: _131  and  _133
REMARK   55  A    between atoms: _133  and  _134
REMARK   56  A    between atoms: _133  and  _136
REMARK   57  A    between atoms: _136  and  _137
REMARK   58  A    between atoms: _140  and  _142
REMARK   59  A    between atoms: _142  and  _143
REMARK   60  A    between atoms: _142  and  _145
REMARK   61  A    between atoms: _145  and  _146
REMARK   62  A    between atoms: _152  and  _154
REMARK   63  A    between atoms: _154  and  _155
REMARK   64  A    between atoms: _154  and  _157
REMARK   65  A    between atoms: _160  and  _162
REMARK   66  A    between atoms: _162  and  _163
REMARK   67  A    between atoms: _162  and  _165
REMARK   68  A    between atoms: _165  and  _166
REMARK   69  A    between atoms: _171  and  _173
REMARK   70  A    between atoms: _173  and  _174
REMARK   71  A    between atoms: _173  and  _176
REMARK   72  A    between atoms: _176  and  _177
REMARK   73  A    between atoms: _177  and  _178
REMARK   74  A    between atoms: _183  and  _185
REMARK   75  A    between atoms: _185  and  _186
REMARK   76  A    between atoms: _185  and  _188
REMARK   77  A    between atoms: _188  and  _189
REMARK   78  A    between atoms: _194  and  _195
REMARK   79  A    between atoms: _197  and  _199
REMARK   80  A    between atoms: _199  and  _200
REMARK   81  A    between atoms: _199  and  _202
REMARK   82  A    between atoms: _202  and  _203
REMARK   83  A    between atoms: _208  and  _210
REMARK   84  A    between atoms: _210  and  _211
REMARK   85  A    between atoms: _210  and  _213
REMARK   86  A    between atoms: _213  and  _214
REMARK   87  A    between atoms: _220  and  _222
REMARK   88  A    between atoms: _222  and  _223
REMARK   89  A    between atoms: _225  and  _227
REMARK   90  A    between atoms: _227  and  _228
REMARK   91  A    between atoms: _227  and  _230
REMARK   92  A    between atoms: _233  and  _235
REMARK   93  A    between atoms: _235  and  _236
REMARK   94  A    between atoms: _235  and  _238
REMARK   95  A    between atoms: _238  and  _239
REMARK   96  A    between atoms: _242  and  _244
REMARK   97  A    between atoms: _244  and  _245
REMARK   98  A    between atoms: _244  and  _247
REMARK   99  A    between atoms: _247  and  _248
REMARK  100  A    between atoms: _251  and  _253
REMARK  101  A    between atoms: _253  and  _254
REMARK  102  A    between atoms: _253  and  _256
REMARK  103  A    between atoms: _259  and  _261
REMARK  104  A    between atoms: _261  and  _262
REMARK  105  A    between atoms: _261  and  _264
REMARK  106  A    between atoms: _267  and  _269
REMARK  107  A    between atoms: _269  and  _270
REMARK  108  A    between atoms: _269  and  _272
REMARK  109  A    between atoms: _272  and  _273
REMARK  110  A    between atoms: _276  and  _278
REMARK  111  A    between atoms: _278  and  _279
REMARK  112  A    between atoms: _278  and  _281
REMARK  113  A    between atoms: _281  and  _282
REMARK  114  A    between atoms: _285  and  _287
REMARK  115  A    between atoms: _287  and  _288
REMARK  116  A    between atoms: _287  and  _290
REMARK  117  A    between atoms: _290  and  _291
REMARK  118  A    between atoms: _297  and  _299
REMARK  119  A    between atoms: _299  and  _300
REMARK  120  A    between atoms: _299  and  _302
REMARK  121  A    between atoms: _302  and  _303
REMARK  122  A    between atoms: _309  and  _311
REMARK  123  A    between atoms: _311  and  _312
REMARK  124  A    between atoms: _314  and  _316
REMARK  125  A    between atoms: _316  and  _317
REMARK  126  A    between atoms: _316  and  _319
REMARK  127  A    between atoms: _319  and  _320
REMARK  128  A    between atoms: _320  and  _321
REMARK  129  A    between atoms: _324  and  _326
REMARK  130  A    between atoms: _326  and  _327
REMARK  131  A    between atoms: _326  and  _329
REMARK  132  A    between atoms: _329  and  _330
REMARK  133  A    between atoms: _330  and  _331
REMARK  134  A    between atoms: _331  and  _332
REMARK  135  A    between atoms: _332  and  _333
REMARK  136  A    between atoms: _337  and  _339
REMARK  137  A    between atoms: _339  and  _340
REMARK  138  A    between atoms: _339  and  _342
REMARK  139  A    between atoms: _342  and  _343
REMARK  140  A    between atoms: _346  and  _348
REMARK  141  A    between atoms: _348  and  _349
REMARK  142  A    between atoms: _348  and  _351
REMARK  143  A    between atoms: _351  and  _352
REMARK  144  A    between atoms: _357  and  _358
REMARK  145  A    between atoms: _360  and  _362
REMARK  146  A    between atoms: _362  and  _363
REMARK  147  A    between atoms: _362  and  _365
REMARK  148  A    between atoms: _365  and  _366
REMARK  149  A    between atoms: _366  and  _367
REMARK  150  A    between atoms: _372  and  _374
REMARK  151  A    between atoms: _374  and  _375
REMARK  152  A    between atoms: _374  and  _377
REMARK  153  A    between atoms: _377  and  _378
REMARK  154  A    between atoms: _381  and  _383
REMARK  155  A    between atoms: _383  and  _384
REMARK  156  A    between atoms: _383  and  _386
REMARK  157  A    between atoms: _386  and  _387
REMARK  158  A    between atoms: _390  and  _392
REMARK  159  A    between atoms: _392  and  _393
REMARK  160  A    between atoms: _392  and  _395
REMARK  161  A    between atoms: _398  and  _400
REMARK  162  A    between atoms: _400  and  _401
REMARK  163  A    between atoms: _403  and  _405
REMARK  164  A    between atoms: _405  and  _406
REMARK  165  A    between atoms: _405  and  _408
REMARK  166  A    between atoms: _412  and  _413
REMARK  167  A    between atoms: _418  and  _420
REMARK  168  A    between atoms: _420  and  _421
REMARK  169  A    between atoms: _420  and  _423
REMARK  170  A    between atoms: _423  and  _424
REMARK  171  A    between atoms: _427  and  _429
REMARK  172  A    between atoms: _429  and  _430
REMARK  173  A    between atoms: _429  and  _432
REMARK  174  A    between atoms: _435  and  _437
REMARK  175  A    between atoms: _437  and  _438
REMARK  176  A    between atoms: _437  and  _440
REMARK  177  A    between atoms: _440  and  _441
REMARK  178  A    between atoms: _441  and  _442
REMARK  179  A    between atoms: _442  and  _443
REMARK  180  A    between atoms: _452  and  _454
REMARK  181  A    between atoms: _454  and  _455
REMARK  182  A    between atoms: _454  and  _457
REMARK  183  A    between atoms: _457  and  _458
REMARK  184  A    between atoms: _458  and  _459
REMARK  185  A    between atoms: _462  and  _464
REMARK  186  A    between atoms: _464  and  _465
REMARK  187  A    between atoms: _464  and  _467
REMARK  188  A    between atoms: _467  and  _468
REMARK  189  A    between atoms: _471  and  _473
REMARK  190  A    between atoms: _473  and  _474
REMARK  191  A    between atoms: _477  and  _479
REMARK  192  A    between atoms: _479  and  _480
REMARK  193  A    between atoms: _479  and  _482
REMARK  194  A    between atoms: _482  and  _483
REMARK  195  A    between atoms: _483  and  _484
REMARK  196  A    between atoms: _486  and  _488
REMARK  197  A    between atoms: _488  and  _489
REMARK  198  A    between atoms: _488  and  _491
REMARK  199  A    between atoms: _491  and  _492
REMARK  200  A    between atoms: _494  and  _496
REMARK  201  A    between atoms: _496  and  _497
REMARK  202  A    between atoms: _496  and  _499
REMARK  203  A    between atoms: _499  and  _500
REMARK  204  A    between atoms: _502  and  _504
REMARK  205  A    between atoms: _504  and  _505
REMARK  206  A    between atoms: _504  and  _507
REMARK  207  A    between atoms: _507  and  _508
REMARK  208  A    between atoms: _508  and  _509
REMARK  209  A    between atoms: _509  and  _510
REMARK  210  A    between atoms: _519  and  _521
REMARK  211  A    between atoms: _521  and  _522
REMARK  212  A    between atoms: _521  and  _524
REMARK  213  A    between atoms: _524  and  _525
REMARK  214  A    between atoms: _530  and  _532
REMARK  215  A    between atoms: _532  and  _533
REMARK  216  A    between atoms: _532  and  _535
REMARK  217  A    between atoms: _535  and  _536
REMARK  218  A    between atoms: _539  and  _541
REMARK  219  A    between atoms: _541  and  _542
REMARK  220  A    between atoms: _541  and  _544
REMARK  221  A    between atoms: _544  and  _545
REMARK                            x       y       z     vdW  Elec       q    Type
REMARK                         _______ _______ _______ _____ _____    ______ ____
ROOT
ATOM      1  O   HOH     1      19.003   2.050   1.817  0.00  0.00    +0.000 OA
ENDROOT
TORSDOF 0
REMARK  Name = ../refined-set-2016/3ioc/3ioc_pocket.pdb
REMARK  221 active torsions:
REMARK  status: ('A' for Active; 'I' for Inactive)
REMARK    1  A    between atoms: _1  and  _3
REMARK    2  A    between atoms: _3  and  _4
REMARK    3  A    between atoms: _3  and  _6
REMARK    4  A    between atoms: _10  and  _11
REMARK    5  A    between atoms: _16  and  _18
REMARK    6  A    between atoms: _18  and  _19
REMARK    7  A    between atoms: _18  and  _21
REMARK    8  A    between atoms: _21  and  _22
REMARK    9  A    between atoms: _25  and  _27
REMARK   10  A    between atoms: _27  and  _28
REMARK   11  A    between atoms: _27  and  _30
REMARK   12  A    between atoms: _30  and  _31
REMARK   13  A    between atoms: _31  and  _32
REMARK   14  A    between atoms: _34  and  _36
REMARK   15  A    between atoms: _36  and  _37
REMARK   16  A    between atoms: _39  and  _41
REMARK   17  A    between atoms: _41  and  _42
REMARK   18  A    between atoms: _45  and  _47
REMARK   19  A    between atoms: _47  and  _48
REMARK   20  A    between atoms: _47  and  _50
REMARK   21  A    between atoms: _50  and  _51
REMARK   22  A    between atoms: _54  and  _56
REMARK   23  A    between atoms: _56  and  _57
REMARK   24  A    between atoms: _56  and  _59
REMARK   25  A    between atoms: _59  and  _60
REMARK   26  A    between atoms: _65  and  _67
REMARK   27  A    between atoms: _67  and  _68
REMARK   28  A    between atoms: _67  and  _70
REMARK   29  A    between atoms: _70  and  _71
REMARK   30  A    between atoms: _71  and  _72
REMARK   31  A    between atoms: _75  and  _77
REMARK   32  A    between atoms: _77  and  _78
REMARK   33  A    between atoms: _80  and  _82
REMARK   34  A    between atoms: _82  and  _83
REMARK   35  A    between atoms: _82  and  _85
REMARK   36  A    between atoms: _85  and  _86
REMARK   37  A    between atoms: _91  and  _93
REMARK   38  A    between atoms: _93  and  _94
REMARK   39  A    between atoms: _93  and  _96
REMARK   40  A    between atoms: _96  and  _97
REMARK   41  A    between atoms: _100  and  _102
REMARK   42  A    between atoms: _102  and  _103
REMARK   43  A    between atoms: _106  and  _108
REMARK   44  A    between atoms: _108  and  _109
REMARK   45  A    between atoms: _108  and  _111
REMARK   46  A    between atoms: _111  and  _112
REMARK   47  A    between atoms: _115  and  _117
REMARK   48  A    between atoms: _117  and  _118
REMARK   49  A    between atoms: _117  and  _120
REMARK   50  A    between atoms: _123  and  _125
REMARK   51  A    between atoms: _125  and  _126
REMARK   52  A    between atoms: _125  and  _128
REMARK   53  A    between atoms: _128  and  _129
REMARK   54  A    between atoms: _131  and  _133
REMARK   55  A    between atoms: _133  and  _134
REMARK   56  A    between atoms: _133  and  _136
REMARK   57  A    between atoms: _136  and  _137
REMARK   58  A    between atoms: _140  and  _142
REMARK   59  A    between atoms: _142  and  _143
REMARK   60  A    between atoms: _142  and  _145
REMARK   61  A    between atoms: _145  and  _146
REMARK   62  A    between atoms: _152  and  _154
REMARK   63  A    between atoms: _154  and  _155
REMARK   64  A    between atoms: _154  and  _157
REMARK   65  A    between atoms: _160  and  _162
REMARK   66  A    between atoms: _162  and  _163
REMARK   67  A    between atoms: _162  and  _165
REMARK   68  A    between atoms: _165  and  _166
REMARK   69  A    between atoms: _171  and  _173
REMARK   70  A    between atoms: _173  and  _174
REMARK   71  A    between atoms: _173  and  _176
REMARK   72  A    between atoms: _176  and  _177
REMARK   73  A    between atoms: _177  and  _178
REMARK   74  A    between atoms: _183  and  _185
REMARK   75  A    between atoms: _185  and  _186
REMARK   76  A    between atoms: _185  and  _188
REMARK   77  A    between atoms: _188  and  _189
REMARK   78  A    between atoms: _194  and  _195
REMARK   79  A    between atoms: _197  and  _199
REMARK   80  A    between atoms: _199  and  _200
REMARK   81  A    between atoms: _199  and  _202
REMARK   82  A    between atoms: _202  and  _203
REMARK   83  A    between atoms: _208  and  _210
REMARK   84  A    between atoms: _210  and  _211
REMARK   85  A    between atoms: _210  and  _213
REMARK   86  A    between atoms: _213  and  _214
REMARK   87  A    between atoms: _220  and  _222
REMARK   88  A    between atoms: _222  and  _223
REMARK   89  A    between atoms: _225  and  _227
REMARK   90  A    between atoms: _227  and  _228
REMARK   91  A    between atoms: _227  and  _230
REMARK   92  A    between atoms: _233  and  _235
REMARK   93  A    between atoms: _235  and  _236
REMARK   94  A    between atoms: _235  and  _238
REMARK   95  A    between atoms: _238  and  _239
REMARK   96  A    between atoms: _242  and  _244
REMARK   97  A    between atoms: _244  and  _245
REMARK   98  A    between atoms: _244  and  _247
REMARK   99  A    between atoms: _247  and  _248
REMARK  100  A    between atoms: _251  and  _253
REMARK  101  A    between atoms: _253  and  _254
REMARK  102  A    between atoms: _253  and  _256
REMARK  103  A    between atoms: _259  and  _261
REMARK  104  A    between atoms: _261  and  _262
REMARK  105  A    between atoms: _261  and  _264
REMARK  106  A    between atoms: _267  and  _269
REMARK  107  A    between atoms: _269  and  _270
REMARK  108  A    between atoms: _269  and  _272
REMARK  109  A    between atoms: _272  and  _273
REMARK  110  A    between atoms: _276  and  _278
REMARK  111  A    between atoms: _278  and  _279
REMARK  112  A    between atoms: _278  and  _281
REMARK  113  A    between atoms: _281  and  _282
REMARK  114  A    between atoms: _285  and  _287
REMARK  115  A    between atoms: _287  and  _288
REMARK  116  A    between atoms: _287  and  _290
REMARK  117  A    between atoms: _290  and  _291
REMARK  118  A    between atoms: _297  and  _299
REMARK  119  A    between atoms: _299  and  _300
REMARK  120  A    between atoms: _299  and  _302
REMARK  121  A    between atoms: _302  and  _303
REMARK  122  A    between atoms: _309  and  _311
REMARK  123  A    between atoms: _311  and  _312
REMARK  124  A    between atoms: _314  and  _316
REMARK  125  A    between atoms: _316  and  _317
REMARK  126  A    between atoms: _316  and  _319
REMARK  127  A    between atoms: _319  and  _320
REMARK  128  A    between atoms: _320  and  _321
REMARK  129  A    between atoms: _324  and  _326
REMARK  130  A    between atoms: _326  and  _327
REMARK  131  A    between atoms: _326  and  _329
REMARK  132  A    between atoms: _329  and  _330
REMARK  133  A    between atoms: _330  and  _331
REMARK  134  A    between atoms: _331  and  _332
REMARK  135  A    between atoms: _332  and  _333
REMARK  136  A    between atoms: _337  and  _339
REMARK  137  A    between atoms: _339  and  _340
REMARK  138  A    between atoms: _339  and  _342
REMARK  139  A    between atoms: _342  and  _343
REMARK  140  A    between atoms: _346  and  _348
REMARK  141  A    between atoms: _348  and  _349
REMARK  142  A    between atoms: _348  and  _351
REMARK  143  A    between atoms: _351  and  _352
REMARK  144  A    between atoms: _357  and  _358
REMARK  145  A    between atoms: _360  and  _362
REMARK  146  A    between atoms: _362  and  _363
REMARK  147  A    between atoms: _362  and  _365
REMARK  148  A    between atoms: _365  and  _366
REMARK  149  A    between atoms: _366  and  _367
REMARK  150  A    between atoms: _372  and  _374
REMARK  151  A    between atoms: _374  and  _375
REMARK  152  A    between atoms: _374  and  _377
REMARK  153  A    between atoms: _377  and  _378
REMARK  154  A    between atoms: _381  and  _383
REMARK  155  A    between atoms: _383  and  _384
REMARK  156  A    between atoms: _383  and  _386
REMARK  157  A    between atoms: _386  and  _387
REMARK  158  A    between atoms: _390  and  _392
REMARK  159  A    between atoms: _392  and  _393
REMARK  160  A    between atoms: _392  and  _395
REMARK  161  A    between atoms: _398  and  _400
REMARK  162  A    between atoms: _400  and  _401
REMARK  163  A    between atoms: _403  and  _405
REMARK  164  A    between atoms: _405  and  _406
REMARK  165  A    between atoms: _405  and  _408
REMARK  166  A    between atoms: _412  and  _413
REMARK  167  A    between atoms: _418  and  _420
REMARK  168  A    between atoms: _420  and  _421
REMARK  169  A    between atoms: _420  and  _423
REMARK  170  A    between atoms: _423  and  _424
REMARK  171  A    between atoms: _427  and  _429
REMARK  172  A    between atoms: _429  and  _430
REMARK  173  A    between atoms: _429  and  _432
REMARK  174  A    between atoms: _435  and  _437
REMARK  175  A    between atoms: _437  and  _438
REMARK  176  A    between atoms: _437  and  _440
REMARK  177  A    between atoms: _440  and  _441
REMARK  178  A    between atoms: _441  and  _442
REMARK  179  A    between atoms: _442  and  _443
REMARK  180  A    between atoms: _452  and  _454
REMARK  181  A    between atoms: _454  and  _455
REMARK  182  A    between atoms: _454  and  _457
REMARK  183  A    between atoms: _457  and  _458
REMARK  184  A    between atoms: _458  and  _459
REMARK  185  A    between atoms: _462  and  _464
REMARK  186  A    between atoms: _464  and  _465
REMARK  187  A    between atoms: _464  and  _467
REMARK  188  A    between atoms: _467  and  _468
REMARK  189  A    between atoms: _471  and  _473
REMARK  190  A    between atoms: _473  and  _474
REMARK  191  A    between atoms: _477  and  _479
REMARK  192  A    between atoms: _479  and  _480
REMARK  193  A    between atoms: _479  and  _482
REMARK  194  A    between atoms: _482  and  _483
REMARK  195  A    between atoms: _483  and  _484
REMARK  196  A    between atoms: _486  and  _488
REMARK  197  A    between atoms: _488  and  _489
REMARK  198  A    between atoms: _488  and  _491
REMARK  199  A    between atoms: _491  and  _492
REMARK  200  A    between atoms: _494  and  _496
REMARK  201  A    between atoms: _496  and  _497
REMARK  202  A    between atoms: _496  and  _499
REMARK  203  A    between atoms: _499  and  _500
REMARK  204  A    between atoms: _502  and  _504
REMARK  205  A    between atoms: _504  and  _505
REMARK  206  A    between atoms: _504  and  _507
REMARK  207  A    between atoms: _507  and  _508
REMARK  208  A    between atoms: _508  and  _509
REMARK  209  A    between atoms: _509  and  _510
REMARK  210  A    between atoms: _519  and  _521
REMARK  211  A    between atoms: _521  and  _522
REMARK  212  A    between atoms: _521  and  _524
REMARK  213  A    between atoms: _524  and  _525
REMARK  214  A    between atoms: _530  and  _532
REMARK  215  A    between atoms: _532  and  _533
REMARK  216  A    between atoms: _532  and  _535
REMARK  217  A    between atoms: _535  and  _536
REMARK  218  A    between atoms: _539  and  _541
REMARK  219  A    between atoms: _541  and  _542
REMARK  220  A    between atoms: _541  and  _544
REMARK  221  A    between atoms: _544  and  _545
REMARK                            x       y       z     vdW  Elec       q    Type
REMARK                         _______ _______ _______ _____ _____    ______ ____
ROOT
ATOM      1  O   HOH     1      11.952  13.721   9.759  0.00  0.00    +0.000 OA
ENDROOT
TORSDOF 0
REMARK  Name = ../refined-set-2016/3ioc/3ioc_pocket.pdb
REMARK  221 active torsions:
REMARK  status: ('A' for Active; 'I' for Inactive)
REMARK    1  A    between atoms: _1  and  _3
REMARK    2  A    between atoms: _3  and  _4
REMARK    3  A    between atoms: _3  and  _6
REMARK    4  A    between atoms: _10  and  _11
REMARK    5  A    between atoms: _16  and  _18
REMARK    6  A    between atoms: _18  and  _19
REMARK    7  A    between atoms: _18  and  _21
REMARK    8  A    between atoms: _21  and  _22
REMARK    9  A    between atoms: _25  and  _27
REMARK   10  A    between atoms: _27  and  _28
REMARK   11  A    between atoms: _27  and  _30
REMARK   12  A    between atoms: _30  and  _31
REMARK   13  A    between atoms: _31  and  _32
REMARK   14  A    between atoms: _34  and  _36
REMARK   15  A    between atoms: _36  and  _37
REMARK   16  A    between atoms: _39  and  _41
REMARK   17  A    between atoms: _41  and  _42
REMARK   18  A    between atoms: _45  and  _47
REMARK   19  A    between atoms: _47  and  _48
REMARK   20  A    between atoms: _47  and  _50
REMARK   21  A    between atoms: _50  and  _51
REMARK   22  A    between atoms: _54  and  _56
REMARK   23  A    between atoms: _56  and  _57
REMARK   24  A    between atoms: _56  and  _59
REMARK   25  A    between atoms: _59  and  _60
REMARK   26  A    between atoms: _65  and  _67
REMARK   27  A    between atoms: _67  and  _68
REMARK   28  A    between atoms: _67  and  _70
REMARK   29  A    between atoms: _70  and  _71
REMARK   30  A    between atoms: _71  and  _72
REMARK   31  A    between atoms: _75  and  _77
REMARK   32  A    between atoms: _77  and  _78
REMARK   33  A    between atoms: _80  and  _82
REMARK   34  A    between atoms: _82  and  _83
REMARK   35  A    between atoms: _82  and  _85
REMARK   36  A    between atoms: _85  and  _86
REMARK   37  A    between atoms: _91  and  _93
REMARK   38  A    between atoms: _93  and  _94
REMARK   39  A    between atoms: _93  and  _96
REMARK   40  A    between atoms: _96  and  _97
REMARK   41  A    between atoms: _100  and  _102
REMARK   42  A    between atoms: _102  and  _103
REMARK   43  A    between atoms: _106  and  _108
REMARK   44  A    between atoms: _108  and  _109
REMARK   45  A    between atoms: _108  and  _111
REMARK   46  A    between atoms: _111  and  _112
REMARK   47  A    between atoms: _115  and  _117
REMARK   48  A    between atoms: _117  and  _118
REMARK   49  A    between atoms: _117  and  _120
REMARK   50  A    between atoms: _123  and  _125
REMARK   51  A    between atoms: _125  and  _126
REMARK   52  A    between atoms: _125  and  _128
REMARK   53  A    between atoms: _128  and  _129
REMARK   54  A    between atoms: _131  and  _133
REMARK   55  A    between atoms: _133  and  _134
REMARK   56  A    between atoms: _133  and  _136
REMARK   57  A    between atoms: _136  and  _137
REMARK   58  A    between atoms: _140  and  _142
REMARK   59  A    between atoms: _142  and  _143
REMARK   60  A    between atoms: _142  and  _145
REMARK   61  A    between atoms: _145  and  _146
REMARK   62  A    between atoms: _152  and  _154
REMARK   63  A    between atoms: _154  and  _155
REMARK   64  A    between atoms: _154  and  _157
REMARK   65  A    between atoms: _160  and  _162
REMARK   66  A    between atoms: _162  and  _163
REMARK   67  A    between atoms: _162  and  _165
REMARK   68  A    between atoms: _165  and  _166
REMARK   69  A    between atoms: _171  and  _173
REMARK   70  A    between atoms: _173  and  _174
REMARK   71  A    between atoms: _173  and  _176
REMARK   72  A    between atoms: _176  and  _177
REMARK   73  A    between atoms: _177  and  _178
REMARK   74  A    between atoms: _183  and  _185
REMARK   75  A    between atoms: _185  and  _186
REMARK   76  A    between atoms: _185  and  _188
REMARK   77  A    between atoms: _188  and  _189
REMARK   78  A    between atoms: _194  and  _195
REMARK   79  A    between atoms: _197  and  _199
REMARK   80  A    between atoms: _199  and  _200
REMARK   81  A    between atoms: _199  and  _202
REMARK   82  A    between atoms: _202  and  _203
REMARK   83  A    between atoms: _208  and  _210
REMARK   84  A    between atoms: _210  and  _211
REMARK   85  A    between atoms: _210  and  _213
REMARK   86  A    between atoms: _213  and  _214
REMARK   87  A    between atoms: _220  and  _222
REMARK   88  A    between atoms: _222  and  _223
REMARK   89  A    between atoms: _225  and  _227
REMARK   90  A    between atoms: _227  and  _228
REMARK   91  A    between atoms: _227  and  _230
REMARK   92  A    between atoms: _233  and  _235
REMARK   93  A    between atoms: _235  and  _236
REMARK   94  A    between atoms: _235  and  _238
REMARK   95  A    between atoms: _238  and  _239
REMARK   96  A    between atoms: _242  and  _244
REMARK   97  A    between atoms: _244  and  _245
REMARK   98  A    between atoms: _244  and  _247
REMARK   99  A    between atoms: _247  and  _248
REMARK  100  A    between atoms: _251  and  _253
REMARK  101  A    between atoms: _253  and  _254
REMARK  102  A    between atoms: _253  and  _256
REMARK  103  A    between atoms: _259  and  _261
REMARK  104  A    between atoms: _261  and  _262
REMARK  105  A    between atoms: _261  and  _264
REMARK  106  A    between atoms: _267  and  _269
REMARK  107  A    between atoms: _269  and  _270
REMARK  108  A    between atoms: _269  and  _272
REMARK  109  A    between atoms: _272  and  _273
REMARK  110  A    between atoms: _276  and  _278
REMARK  111  A    between atoms: _278  and  _279
REMARK  112  A    between atoms: _278  and  _281
REMARK  113  A    between atoms: _281  and  _282
REMARK  114  A    between atoms: _285  and  _287
REMARK  115  A    between atoms: _287  and  _288
REMARK  116  A    between atoms: _287  and  _290
REMARK  117  A    between atoms: _290  and  _291
REMARK  118  A    between atoms: _297  and  _299
REMARK  119  A    between atoms: _299  and  _300
REMARK  120  A    between atoms: _299  and  _302
REMARK  121  A    between atoms: _302  and  _303
REMARK  122  A    between atoms: _309  and  _311
REMARK  123  A    between atoms: _311  and  _312
REMARK  124  A    between atoms: _314  and  _316
REMARK  125  A    between atoms: _316  and  _317
REMARK  126  A    between atoms: _316  and  _319
REMARK  127  A    between atoms: _319  and  _320
REMARK  128  A    between atoms: _320  and  _321
REMARK  129  A    between atoms: _324  and  _326
REMARK  130  A    between atoms: _326  and  _327
REMARK  131  A    between atoms: _326  and  _329
REMARK  132  A    between atoms: _329  and  _330
REMARK  133  A    between atoms: _330  and  _331
REMARK  134  A    between atoms: _331  and  _332
REMARK  135  A    between atoms: _332  and  _333
REMARK  136  A    between atoms: _337  and  _339
REMARK  137  A    between atoms: _339  and  _340
REMARK  138  A    between atoms: _339  and  _342
REMARK  139  A    between atoms: _342  and  _343
REMARK  140  A    between atoms: _346  and  _348
REMARK  141  A    between atoms: _348  and  _349
REMARK  142  A    between atoms: _348  and  _351
REMARK  143  A    between atoms: _351  and  _352
REMARK  144  A    between atoms: _357  and  _358
REMARK  145  A    between atoms: _360  and  _362
REMARK  146  A    between atoms: _362  and  _363
REMARK  147  A    between atoms: _362  and  _365
REMARK  148  A    between atoms: _365  and  _366
REMARK  149  A    between atoms: _366  and  _367
REMARK  150  A    between atoms: _372  and  _374
REMARK  151  A    between atoms: _374  and  _375
REMARK  152  A    between atoms: _374  and  _377
REMARK  153  A    between atoms: _377  and  _378
REMARK  154  A    between atoms: _381  and  _383
REMARK  155  A    between atoms: _383  and  _384
REMARK  156  A    between atoms: _383  and  _386
REMARK  157  A    between atoms: _386  and  _387
REMARK  158  A    between atoms: _390  and  _392
REMARK  159  A    between atoms: _392  and  _393
REMARK  160  A    between atoms: _392  and  _395
REMARK  161  A    between atoms: _398  and  _400
REMARK  162  A    between atoms: _400  and  _401
REMARK  163  A    between atoms: _403  and  _405
REMARK  164  A    between atoms: _405  and  _406
REMARK  165  A    between atoms: _405  and  _408
REMARK  166  A    between atoms: _412  and  _413
REMARK  167  A    between atoms: _418  and  _420
REMARK  168  A    between atoms: _420  and  _421
REMARK  169  A    between atoms: _420  and  _423
REMARK  170  A    between atoms: _423  and  _424
REMARK  171  A    between atoms: _427  and  _429
REMARK  172  A    between atoms: _429  and  _430
REMARK  173  A    between atoms: _429  and  _432
REMARK  174  A    between atoms: _435  and  _437
REMARK  175  A    between atoms: _437  and  _438
REMARK  176  A    between atoms: _437  and  _440
REMARK  177  A    between atoms: _440  and  _441
REMARK  178  A    between atoms: _441  and  _442
REMARK  179  A    between atoms: _442  and  _443
REMARK  180  A    between atoms: _452  and  _454
REMARK  181  A    between atoms: _454  and  _455
REMARK  182  A    between atoms: _454  and  _457
REMARK  183  A    between atoms: _457  and  _458
REMARK  184  A    between atoms: _458  and  _459
REMARK  185  A    between atoms: _462  and  _464
REMARK  186  A    between atoms: _464  and  _465
REMARK  187  A    between atoms: _464  and  _467
REMARK  188  A    between atoms: _467  and  _468
REMARK  189  A    between atoms: _471  and  _473
REMARK  190  A    between atoms: _473  and  _474
REMARK  191  A    between atoms: _477  and  _479
REMARK  192  A    between atoms: _479  and  _480
REMARK  193  A    between atoms: _479  and  _482
REMARK  194  A    between atoms: _482  and  _483
REMARK  195  A    between atoms: _483  and  _484
REMARK  196  A    between atoms: _486  and  _488
REMARK  197  A    between atoms: _488  and  _489
REMARK  198  A    between atoms: _488  and  _491
REMARK  199  A    between atoms: _491  and  _492
REMARK  200  A    between atoms: _494  and  _496
REMARK  201  A    between atoms: _496  and  _497
REMARK  202  A    between atoms: _496  and  _499
REMARK  203  A    between atoms: _499  and  _500
REMARK  204  A    between atoms: _502  and  _504
REMARK  205  A    between atoms: _504  and  _505
REMARK  206  A    between atoms: _504  and  _507
REMARK  207  A    between atoms: _507  and  _508
REMARK  208  A    between atoms: _508  and  _509
REMARK  209  A    between atoms: _509  and  _510
REMARK  210  A    between atoms: _519  and  _521
REMARK  211  A    between atoms: _521  and  _522
REMARK  212  A    between atoms: _521  and  _524
REMARK  213  A    between atoms: _524  and  _525
REMARK  214  A    between atoms: _530  and  _532
REMARK  215  A    between atoms: _532  and  _533
REMARK  216  A    between atoms: _532  and  _535
REMARK  217  A    between atoms: _535  and  _536
REMARK  218  A    between atoms: _539  and  _541
REMARK  219  A    between atoms: _541  and  _542
REMARK  220  A    between atoms: _541  and  _544
REMARK  221  A    between atoms: _544  and  _545
REMARK                            x       y       z     vdW  Elec       q    Type
REMARK                         _______ _______ _______ _____ _____    ______ ____
ROOT
ATOM      1  O   HOH     1      21.946  10.534   5.623  0.00  0.00    +0.000 OA
ENDROOT
TORSDOF 0
REMARK  Name = ../refined-set-2016/3ioc/3ioc_pocket.pdb
REMARK  221 active torsions:
REMARK  status: ('A' for Active; 'I' for Inactive)
REMARK    1  A    between atoms: _1  and  _3
REMARK    2  A    between atoms: _3  and  _4
REMARK    3  A    between atoms: _3  and  _6
REMARK    4  A    between atoms: _10  and  _11
REMARK    5  A    between atoms: _16  and  _18
REMARK    6  A    between atoms: _18  and  _19
REMARK    7  A    between atoms: _18  and  _21
REMARK    8  A    between atoms: _21  and  _22
REMARK    9  A    between atoms: _25  and  _27
REMARK   10  A    between atoms: _27  and  _28
REMARK   11  A    between atoms: _27  and  _30
REMARK   12  A    between atoms: _30  and  _31
REMARK   13  A    between atoms: _31  and  _32
REMARK   14  A    between atoms: _34  and  _36
REMARK   15  A    between atoms: _36  and  _37
REMARK   16  A    between atoms: _39  and  _41
REMARK   17  A    between atoms: _41  and  _42
REMARK   18  A    between atoms: _45  and  _47
REMARK   19  A    between atoms: _47  and  _48
REMARK   20  A    between atoms: _47  and  _50
REMARK   21  A    between atoms: _50  and  _51
REMARK   22  A    between atoms: _54  and  _56
REMARK   23  A    between atoms: _56  and  _57
REMARK   24  A    between atoms: _56  and  _59
REMARK   25  A    between atoms: _59  and  _60
REMARK   26  A    between atoms: _65  and  _67
REMARK   27  A    between atoms: _67  and  _68
REMARK   28  A    between atoms: _67  and  _70
REMARK   29  A    between atoms: _70  and  _71
REMARK   30  A    between atoms: _71  and  _72
REMARK   31  A    between atoms: _75  and  _77
REMARK   32  A    between atoms: _77  and  _78
REMARK   33  A    between atoms: _80  and  _82
REMARK   34  A    between atoms: _82  and  _83
REMARK   35  A    between atoms: _82  and  _85
REMARK   36  A    between atoms: _85  and  _86
REMARK   37  A    between atoms: _91  and  _93
REMARK   38  A    between atoms: _93  and  _94
REMARK   39  A    between atoms: _93  and  _96
REMARK   40  A    between atoms: _96  and  _97
REMARK   41  A    between atoms: _100  and  _102
REMARK   42  A    between atoms: _102  and  _103
REMARK   43  A    between atoms: _106  and  _108
REMARK   44  A    between atoms: _108  and  _109
REMARK   45  A    between atoms: _108  and  _111
REMARK   46  A    between atoms: _111  and  _112
REMARK   47  A    between atoms: _115  and  _117
REMARK   48  A    between atoms: _117  and  _118
REMARK   49  A    between atoms: _117  and  _120
REMARK   50  A    between atoms: _123  and  _125
REMARK   51  A    between atoms: _125  and  _126
REMARK   52  A    between atoms: _125  and  _128
REMARK   53  A    between atoms: _128  and  _129
REMARK   54  A    between atoms: _131  and  _133
REMARK   55  A    between atoms: _133  and  _134
REMARK   56  A    between atoms: _133  and  _136
REMARK   57  A    between atoms: _136  and  _137
REMARK   58  A    between atoms: _140  and  _142
REMARK   59  A    between atoms: _142  and  _143
REMARK   60  A    between atoms: _142  and  _145
REMARK   61  A    between atoms: _145  and  _146
REMARK   62  A    between atoms: _152  and  _154
REMARK   63  A    between atoms: _154  and  _155
REMARK   64  A    between atoms: _154  and  _157
REMARK   65  A    between atoms: _160  and  _162
REMARK   66  A    between atoms: _162  and  _163
REMARK   67  A    between atoms: _162  and  _165
REMARK   68  A    between atoms: _165  and  _166
REMARK   69  A    between atoms: _171  and  _173
REMARK   70  A    between atoms: _173  and  _174
REMARK   71  A    between atoms: _173  and  _176
REMARK   72  A    between atoms: _176  and  _177
REMARK   73  A    between atoms: _177  and  _178
REMARK   74  A    between atoms: _183  and  _185
REMARK   75  A    between atoms: _185  and  _186
REMARK   76  A    between atoms: _185  and  _188
REMARK   77  A    between atoms: _188  and  _189
REMARK   78  A    between atoms: _194  and  _195
REMARK   79  A    between atoms: _197  and  _199
REMARK   80  A    between atoms: _199  and  _200
REMARK   81  A    between atoms: _199  and  _202
REMARK   82  A    between atoms: _202  and  _203
REMARK   83  A    between atoms: _208  and  _210
REMARK   84  A    between atoms: _210  and  _211
REMARK   85  A    between atoms: _210  and  _213
REMARK   86  A    between atoms: _213  and  _214
REMARK   87  A    between atoms: _220  and  _222
REMARK   88  A    between atoms: _222  and  _223
REMARK   89  A    between atoms: _225  and  _227
REMARK   90  A    between atoms: _227  and  _228
REMARK   91  A    between atoms: _227  and  _230
REMARK   92  A    between atoms: _233  and  _235
REMARK   93  A    between atoms: _235  and  _236
REMARK   94  A    between atoms: _235  and  _238
REMARK   95  A    between atoms: _238  and  _239
REMARK   96  A    between atoms: _242  and  _244
REMARK   97  A    between atoms: _244  and  _245
REMARK   98  A    between atoms: _244  and  _247
REMARK   99  A    between atoms: _247  and  _248
REMARK  100  A    between atoms: _251  and  _253
REMARK  101  A    between atoms: _253  and  _254
REMARK  102  A    between atoms: _253  and  _256
REMARK  103  A    between atoms: _259  and  _261
REMARK  104  A    between atoms: _261  and  _262
REMARK  105  A    between atoms: _261  and  _264
REMARK  106  A    between atoms: _267  and  _269
REMARK  107  A    between atoms: _269  and  _270
REMARK  108  A    between atoms: _269  and  _272
REMARK  109  A    between atoms: _272  and  _273
REMARK  110  A    between atoms: _276  and  _278
REMARK  111  A    between atoms: _278  and  _279
REMARK  112  A    between atoms: _278  and  _281
REMARK  113  A    between atoms: _281  and  _282
REMARK  114  A    between atoms: _285  and  _287
REMARK  115  A    between atoms: _287  and  _288
REMARK  116  A    between atoms: _287  and  _290
REMARK  117  A    between atoms: _290  and  _291
REMARK  118  A    between atoms: _297  and  _299
REMARK  119  A    between atoms: _299  and  _300
REMARK  120  A    between atoms: _299  and  _302
REMARK  121  A    between atoms: _302  and  _303
REMARK  122  A    between atoms: _309  and  _311
REMARK  123  A    between atoms: _311  and  _312
REMARK  124  A    between atoms: _314  and  _316
REMARK  125  A    between atoms: _316  and  _317
REMARK  126  A    between atoms: _316  and  _319
REMARK  127  A    between atoms: _319  and  _320
REMARK  128  A    between atoms: _320  and  _321
REMARK  129  A    between atoms: _324  and  _326
REMARK  130  A    between atoms: _326  and  _327
REMARK  131  A    between atoms: _326  and  _329
REMARK  132  A    between atoms: _329  and  _330
REMARK  133  A    between atoms: _330  and  _331
REMARK  134  A    between atoms: _331  and  _332
REMARK  135  A    between atoms: _332  and  _333
REMARK  136  A    between atoms: _337  and  _339
REMARK  137  A    between atoms: _339  and  _340
REMARK  138  A    between atoms: _339  and  _342
REMARK  139  A    between atoms: _342  and  _343
REMARK  140  A    between atoms: _346  and  _348
REMARK  141  A    between atoms: _348  and  _349
REMARK  142  A    between atoms: _348  and  _351
REMARK  143  A    between atoms: _351  and  _352
REMARK  144  A    between atoms: _357  and  _358
REMARK  145  A    between atoms: _360  and  _362
REMARK  146  A    between atoms: _362  and  _363
REMARK  147  A    between atoms: _362  and  _365
REMARK  148  A    between atoms: _365  and  _366
REMARK  149  A    between atoms: _366  and  _367
REMARK  150  A    between atoms: _372  and  _374
REMARK  151  A    between atoms: _374  and  _375
REMARK  152  A    between atoms: _374  and  _377
REMARK  153  A    between atoms: _377  and  _378
REMARK  154  A    between atoms: _381  and  _383
REMARK  155  A    between atoms: _383  and  _384
REMARK  156  A    between atoms: _383  and  _386
REMARK  157  A    between atoms: _386  and  _387
REMARK  158  A    between atoms: _390  and  _392
REMARK  159  A    between atoms: _392  and  _393
REMARK  160  A    between atoms: _392  and  _395
REMARK  161  A    between atoms: _398  and  _400
REMARK  162  A    between atoms: _400  and  _401
REMARK  163  A    between atoms: _403  and  _405
REMARK  164  A    between atoms: _405  and  _406
REMARK  165  A    between atoms: _405  and  _408
REMARK  166  A    between atoms: _412  and  _413
REMARK  167  A    between atoms: _418  and  _420
REMARK  168  A    between atoms: _420  and  _421
REMARK  169  A    between atoms: _420  and  _423
REMARK  170  A    between atoms: _423  and  _424
REMARK  171  A    between atoms: _427  and  _429
REMARK  172  A    between atoms: _429  and  _430
REMARK  173  A    between atoms: _429  and  _432
REMARK  174  A    between atoms: _435  and  _437
REMARK  175  A    between atoms: _437  and  _438
REMARK  176  A    between atoms: _437  and  _440
REMARK  177  A    between atoms: _440  and  _441
REMARK  178  A    between atoms: _441  and  _442
REMARK  179  A    between atoms: _442  and  _443
REMARK  180  A    between atoms: _452  and  _454
REMARK  181  A    between atoms: _454  and  _455
REMARK  182  A    between atoms: _454  and  _457
REMARK  183  A    between atoms: _457  and  _458
REMARK  184  A    between atoms: _458  and  _459
REMARK  185  A    between atoms: _462  and  _464
REMARK  186  A    between atoms: _464  and  _465
REMARK  187  A    between atoms: _464  and  _467
REMARK  188  A    between atoms: _467  and  _468
REMARK  189  A    between atoms: _471  and  _473
REMARK  190  A    between atoms: _473  and  _474
REMARK  191  A    between atoms: _477  and  _479
REMARK  192  A    between atoms: _479  and  _480
REMARK  193  A    between atoms: _479  and  _482
REMARK  194  A    between atoms: _482  and  _483
REMARK  195  A    between atoms: _483  and  _484
REMARK  196  A    between atoms: _486  and  _488
REMARK  197  A    between atoms: _488  and  _489
REMARK  198  A    between atoms: _488  and  _491
REMARK  199  A    between atoms: _491  and  _492
REMARK  200  A    between atoms: _494  and  _496
REMARK  201  A    between atoms: _496  and  _497
REMARK  202  A    between atoms: _496  and  _499
REMARK  203  A    between atoms: _499  and  _500
REMARK  204  A    between atoms: _502  and  _504
REMARK  205  A    between atoms: _504  and  _505
REMARK  206  A    between atoms: _504  and  _507
REMARK  207  A    between atoms: _507  and  _508
REMARK  208  A    between atoms: _508  and  _509
REMARK  209  A    between atoms: _509  and  _510
REMARK  210  A    between atoms: _519  and  _521
REMARK  211  A    between atoms: _521  and  _522
REMARK  212  A    between atoms: _521  and  _524
REMARK  213  A    between atoms: _524  and  _525
REMARK  214  A    between atoms: _530  and  _532
REMARK  215  A    between atoms: _532  and  _533
REMARK  216  A    between atoms: _532  and  _535
REMARK  217  A    between atoms: _535  and  _536
REMARK  218  A    between atoms: _539  and  _541
REMARK  219  A    between atoms: _541  and  _542
REMARK  220  A    between atoms: _541  and  _544
REMARK  221  A    between atoms: _544  and  _545
REMARK                            x       y       z     vdW  Elec       q    Type
REMARK                         _______ _______ _______ _____ _____    ______ ____
ROOT
ATOM      1  O   HOH     1      13.598   5.209 -11.756  0.00  0.00    +0.000 OA
ENDROOT
TORSDOF 0
REMARK  Name = ../refined-set-2016/3ioc/3ioc_pocket.pdb
REMARK  221 active torsions:
REMARK  status: ('A' for Active; 'I' for Inactive)
REMARK    1  A    between atoms: _1  and  _3
REMARK    2  A    between atoms: _3  and  _4
REMARK    3  A    between atoms: _3  and  _6
REMARK    4  A    between atoms: _10  and  _11
REMARK    5  A    between atoms: _16  and  _18
REMARK    6  A    between atoms: _18  and  _19
REMARK    7  A    between atoms: _18  and  _21
REMARK    8  A    between atoms: _21  and  _22
REMARK    9  A    between atoms: _25  and  _27
REMARK   10  A    between atoms: _27  and  _28
REMARK   11  A    between atoms: _27  and  _30
REMARK   12  A    between atoms: _30  and  _31
REMARK   13  A    between atoms: _31  and  _32
REMARK   14  A    between atoms: _34  and  _36
REMARK   15  A    between atoms: _36  and  _37
REMARK   16  A    between atoms: _39  and  _41
REMARK   17  A    between atoms: _41  and  _42
REMARK   18  A    between atoms: _45  and  _47
REMARK   19  A    between atoms: _47  and  _48
REMARK   20  A    between atoms: _47  and  _50
REMARK   21  A    between atoms: _50  and  _51
REMARK   22  A    between atoms: _54  and  _56
REMARK   23  A    between atoms: _56  and  _57
REMARK   24  A    between atoms: _56  and  _59
REMARK   25  A    between atoms: _59  and  _60
REMARK   26  A    between atoms: _65  and  _67
REMARK   27  A    between atoms: _67  and  _68
REMARK   28  A    between atoms: _67  and  _70
REMARK   29  A    between atoms: _70  and  _71
REMARK   30  A    between atoms: _71  and  _72
REMARK   31  A    between atoms: _75  and  _77
REMARK   32  A    between atoms: _77  and  _78
REMARK   33  A    between atoms: _80  and  _82
REMARK   34  A    between atoms: _82  and  _83
REMARK   35  A    between atoms: _82  and  _85
REMARK   36  A    between atoms: _85  and  _86
REMARK   37  A    between atoms: _91  and  _93
REMARK   38  A    between atoms: _93  and  _94
REMARK   39  A    between atoms: _93  and  _96
REMARK   40  A    between atoms: _96  and  _97
REMARK   41  A    between atoms: _100  and  _102
REMARK   42  A    between atoms: _102  and  _103
REMARK   43  A    between atoms: _106  and  _108
REMARK   44  A    between atoms: _108  and  _109
REMARK   45  A    between atoms: _108  and  _111
REMARK   46  A    between atoms: _111  and  _112
REMARK   47  A    between atoms: _115  and  _117
REMARK   48  A    between atoms: _117  and  _118
REMARK   49  A    between atoms: _117  and  _120
REMARK   50  A    between atoms: _123  and  _125
REMARK   51  A    between atoms: _125  and  _126
REMARK   52  A    between atoms: _125  and  _128
REMARK   53  A    between atoms: _128  and  _129
REMARK   54  A    between atoms: _131  and  _133
REMARK   55  A    between atoms: _133  and  _134
REMARK   56  A    between atoms: _133  and  _136
REMARK   57  A    between atoms: _136  and  _137
REMARK   58  A    between atoms: _140  and  _142
REMARK   59  A    between atoms: _142  and  _143
REMARK   60  A    between atoms: _142  and  _145
REMARK   61  A    between atoms: _145  and  _146
REMARK   62  A    between atoms: _152  and  _154
REMARK   63  A    between atoms: _154  and  _155
REMARK   64  A    between atoms: _154  and  _157
REMARK   65  A    between atoms: _160  and  _162
REMARK   66  A    between atoms: _162  and  _163
REMARK   67  A    between atoms: _162  and  _165
REMARK   68  A    between atoms: _165  and  _166
REMARK   69  A    between atoms: _171  and  _173
REMARK   70  A    between atoms: _173  and  _174
REMARK   71  A    between atoms: _173  and  _176
REMARK   72  A    between atoms: _176  and  _177
REMARK   73  A    between atoms: _177  and  _178
REMARK   74  A    between atoms: _183  and  _185
REMARK   75  A    between atoms: _185  and  _186
REMARK   76  A    between atoms: _185  and  _188
REMARK   77  A    between atoms: _188  and  _189
REMARK   78  A    between atoms: _194  and  _195
REMARK   79  A    between atoms: _197  and  _199
REMARK   80  A    between atoms: _199  and  _200
REMARK   81  A    between atoms: _199  and  _202
REMARK   82  A    between atoms: _202  and  _203
REMARK   83  A    between atoms: _208  and  _210
REMARK   84  A    between atoms: _210  and  _211
REMARK   85  A    between atoms: _210  and  _213
REMARK   86  A    between atoms: _213  and  _214
REMARK   87  A    between atoms: _220  and  _222
REMARK   88  A    between atoms: _222  and  _223
REMARK   89  A    between atoms: _225  and  _227
REMARK   90  A    between atoms: _227  and  _228
REMARK   91  A    between atoms: _227  and  _230
REMARK   92  A    between atoms: _233  and  _235
REMARK   93  A    between atoms: _235  and  _236
REMARK   94  A    between atoms: _235  and  _238
REMARK   95  A    between atoms: _238  and  _239
REMARK   96  A    between atoms: _242  and  _244
REMARK   97  A    between atoms: _244  and  _245
REMARK   98  A    between atoms: _244  and  _247
REMARK   99  A    between atoms: _247  and  _248
REMARK  100  A    between atoms: _251  and  _253
REMARK  101  A    between atoms: _253  and  _254
REMARK  102  A    between atoms: _253  and  _256
REMARK  103  A    between atoms: _259  and  _261
REMARK  104  A    between atoms: _261  and  _262
REMARK  105  A    between atoms: _261  and  _264
REMARK  106  A    between atoms: _267  and  _269
REMARK  107  A    between atoms: _269  and  _270
REMARK  108  A    between atoms: _269  and  _272
REMARK  109  A    between atoms: _272  and  _273
REMARK  110  A    between atoms: _276  and  _278
REMARK  111  A    between atoms: _278  and  _279
REMARK  112  A    between atoms: _278  and  _281
REMARK  113  A    between atoms: _281  and  _282
REMARK  114  A    between atoms: _285  and  _287
REMARK  115  A    between atoms: _287  and  _288
REMARK  116  A    between atoms: _287  and  _290
REMARK  117  A    between atoms: _290  and  _291
REMARK  118  A    between atoms: _297  and  _299
REMARK  119  A    between atoms: _299  and  _300
REMARK  120  A    between atoms: _299  and  _302
REMARK  121  A    between atoms: _302  and  _303
REMARK  122  A    between atoms: _309  and  _311
REMARK  123  A    between atoms: _311  and  _312
REMARK  124  A    between atoms: _314  and  _316
REMARK  125  A    between atoms: _316  and  _317
REMARK  126  A    between atoms: _316  and  _319
REMARK  127  A    between atoms: _319  and  _320
REMARK  128  A    between atoms: _320  and  _321
REMARK  129  A    between atoms: _324  and  _326
REMARK  130  A    between atoms: _326  and  _327
REMARK  131  A    between atoms: _326  and  _329
REMARK  132  A    between atoms: _329  and  _330
REMARK  133  A    between atoms: _330  and  _331
REMARK  134  A    between atoms: _331  and  _332
REMARK  135  A    between atoms: _332  and  _333
REMARK  136  A    between atoms: _337  and  _339
REMARK  137  A    between atoms: _339  and  _340
REMARK  138  A    between atoms: _339  and  _342
REMARK  139  A    between atoms: _342  and  _343
REMARK  140  A    between atoms: _346  and  _348
REMARK  141  A    between atoms: _348  and  _349
REMARK  142  A    between atoms: _348  and  _351
REMARK  143  A    between atoms: _351  and  _352
REMARK  144  A    between atoms: _357  and  _358
REMARK  145  A    between atoms: _360  and  _362
REMARK  146  A    between atoms: _362  and  _363
REMARK  147  A    between atoms: _362  and  _365
REMARK  148  A    between atoms: _365  and  _366
REMARK  149  A    between atoms: _366  and  _367
REMARK  150  A    between atoms: _372  and  _374
REMARK  151  A    between atoms: _374  and  _375
REMARK  152  A    between atoms: _374  and  _377
REMARK  153  A    between atoms: _377  and  _378
REMARK  154  A    between atoms: _381  and  _383
REMARK  155  A    between atoms: _383  and  _384
REMARK  156  A    between atoms: _383  and  _386
REMARK  157  A    between atoms: _386  and  _387
REMARK  158  A    between atoms: _390  and  _392
REMARK  159  A    between atoms: _392  and  _393
REMARK  160  A    between atoms: _392  and  _395
REMARK  161  A    between atoms: _398  and  _400
REMARK  162  A    between atoms: _400  and  _401
REMARK  163  A    between atoms: _403  and  _405
REMARK  164  A    between atoms: _405  and  _406
REMARK  165  A    between atoms: _405  and  _408
REMARK  166  A    between atoms: _412  and  _413
REMARK  167  A    between atoms: _418  and  _420
REMARK  168  A    between atoms: _420  and  _421
REMARK  169  A    between atoms: _420  and  _423
REMARK  170  A    between atoms: _423  and  _424
REMARK  171  A    between atoms: _427  and  _429
REMARK  172  A    between atoms: _429  and  _430
REMARK  173  A    between atoms: _429  and  _432
REMARK  174  A    between atoms: _435  and  _437
REMARK  175  A    between atoms: _437  and  _438
REMARK  176  A    between atoms: _437  and  _440
REMARK  177  A    between atoms: _440  and  _441
REMARK  178  A    between atoms: _441  and  _442
REMARK  179  A    between atoms: _442  and  _443
REMARK  180  A    between atoms: _452  and  _454
REMARK  181  A    between atoms: _454  and  _455
REMARK  182  A    between atoms: _454  and  _457
REMARK  183  A    between atoms: _457  and  _458
REMARK  184  A    between atoms: _458  and  _459
REMARK  185  A    between atoms: _462  and  _464
REMARK  186  A    between atoms: _464  and  _465
REMARK  187  A    between atoms: _464  and  _467
REMARK  188  A    between atoms: _467  and  _468
REMARK  189  A    between atoms: _471  and  _473
REMARK  190  A    between atoms: _473  and  _474
REMARK  191  A    between atoms: _477  and  _479
REMARK  192  A    between atoms: _479  and  _480
REMARK  193  A    between atoms: _479  and  _482
REMARK  194  A    between atoms: _482  and  _483
REMARK  195  A    between atoms: _483  and  _484
REMARK  196  A    between atoms: _486  and  _488
REMARK  197  A    between atoms: _488  and  _489
REMARK  198  A    between atoms: _488  and  _491
REMARK  199  A    between atoms: _491  and  _492
REMARK  200  A    between atoms: _494  and  _496
REMARK  201  A    between atoms: _496  and  _497
REMARK  202  A    between atoms: _496  and  _499
REMARK  203  A    between atoms: _499  and  _500
REMARK  204  A    between atoms: _502  and  _504
REMARK  205  A    between atoms: _504  and  _505
REMARK  206  A    between atoms: _504  and  _507
REMARK  207  A    between atoms: _507  and  _508
REMARK  208  A    between atoms: _508  and  _509
REMARK  209  A    between atoms: _509  and  _510
REMARK  210  A    between atoms: _519  and  _521
REMARK  211  A    between atoms: _521  and  _522
REMARK  212  A    between atoms: _521  and  _524
REMARK  213  A    between atoms: _524  and  _525
REMARK  214  A    between atoms: _530  and  _532
REMARK  215  A    between atoms: _532  and  _533
REMARK  216  A    between atoms: _532  and  _535
REMARK  217  A    between atoms: _535  and  _536
REMARK  218  A    between atoms: _539  and  _541
REMARK  219  A    between atoms: _541  and  _542
REMARK  220  A    between atoms: _541  and  _544
REMARK  221  A    between atoms: _544  and  _545
REMARK                            x       y       z     vdW  Elec       q    Type
REMARK                         _______ _______ _______ _____ _____    ______ ____
ROOT
ATOM      1  O   HOH     1       8.398   8.911  -8.512  0.00  0.00    +0.000 OA
ENDROOT
TORSDOF 0
REMARK  Name = ../refined-set-2016/3ioc/3ioc_pocket.pdb
REMARK  221 active torsions:
REMARK  status: ('A' for Active; 'I' for Inactive)
REMARK    1  A    between atoms: _1  and  _3
REMARK    2  A    between atoms: _3  and  _4
REMARK    3  A    between atoms: _3  and  _6
REMARK    4  A    between atoms: _10  and  _11
REMARK    5  A    between atoms: _16  and  _18
REMARK    6  A    between atoms: _18  and  _19
REMARK    7  A    between atoms: _18  and  _21
REMARK    8  A    between atoms: _21  and  _22
REMARK    9  A    between atoms: _25  and  _27
REMARK   10  A    between atoms: _27  and  _28
REMARK   11  A    between atoms: _27  and  _30
REMARK   12  A    between atoms: _30  and  _31
REMARK   13  A    between atoms: _31  and  _32
REMARK   14  A    between atoms: _34  and  _36
REMARK   15  A    between atoms: _36  and  _37
REMARK   16  A    between atoms: _39  and  _41
REMARK   17  A    between atoms: _41  and  _42
REMARK   18  A    between atoms: _45  and  _47
REMARK   19  A    between atoms: _47  and  _48
REMARK   20  A    between atoms: _47  and  _50
REMARK   21  A    between atoms: _50  and  _51
REMARK   22  A    between atoms: _54  and  _56
REMARK   23  A    between atoms: _56  and  _57
REMARK   24  A    between atoms: _56  and  _59
REMARK   25  A    between atoms: _59  and  _60
REMARK   26  A    between atoms: _65  and  _67
REMARK   27  A    between atoms: _67  and  _68
REMARK   28  A    between atoms: _67  and  _70
REMARK   29  A    between atoms: _70  and  _71
REMARK   30  A    between atoms: _71  and  _72
REMARK   31  A    between atoms: _75  and  _77
REMARK   32  A    between atoms: _77  and  _78
REMARK   33  A    between atoms: _80  and  _82
REMARK   34  A    between atoms: _82  and  _83
REMARK   35  A    between atoms: _82  and  _85
REMARK   36  A    between atoms: _85  and  _86
REMARK   37  A    between atoms: _91  and  _93
REMARK   38  A    between atoms: _93  and  _94
REMARK   39  A    between atoms: _93  and  _96
REMARK   40  A    between atoms: _96  and  _97
REMARK   41  A    between atoms: _100  and  _102
REMARK   42  A    between atoms: _102  and  _103
REMARK   43  A    between atoms: _106  and  _108
REMARK   44  A    between atoms: _108  and  _109
REMARK   45  A    between atoms: _108  and  _111
REMARK   46  A    between atoms: _111  and  _112
REMARK   47  A    between atoms: _115  and  _117
REMARK   48  A    between atoms: _117  and  _118
REMARK   49  A    between atoms: _117  and  _120
REMARK   50  A    between atoms: _123  and  _125
REMARK   51  A    between atoms: _125  and  _126
REMARK   52  A    between atoms: _125  and  _128
REMARK   53  A    between atoms: _128  and  _129
REMARK   54  A    between atoms: _131  and  _133
REMARK   55  A    between atoms: _133  and  _134
REMARK   56  A    between atoms: _133  and  _136
REMARK   57  A    between atoms: _136  and  _137
REMARK   58  A    between atoms: _140  and  _142
REMARK   59  A    between atoms: _142  and  _143
REMARK   60  A    between atoms: _142  and  _145
REMARK   61  A    between atoms: _145  and  _146
REMARK   62  A    between atoms: _152  and  _154
REMARK   63  A    between atoms: _154  and  _155
REMARK   64  A    between atoms: _154  and  _157
REMARK   65  A    between atoms: _160  and  _162
REMARK   66  A    between atoms: _162  and  _163
REMARK   67  A    between atoms: _162  and  _165
REMARK   68  A    between atoms: _165  and  _166
REMARK   69  A    between atoms: _171  and  _173
REMARK   70  A    between atoms: _173  and  _174
REMARK   71  A    between atoms: _173  and  _176
REMARK   72  A    between atoms: _176  and  _177
REMARK   73  A    between atoms: _177  and  _178
REMARK   74  A    between atoms: _183  and  _185
REMARK   75  A    between atoms: _185  and  _186
REMARK   76  A    between atoms: _185  and  _188
REMARK   77  A    between atoms: _188  and  _189
REMARK   78  A    between atoms: _194  and  _195
REMARK   79  A    between atoms: _197  and  _199
REMARK   80  A    between atoms: _199  and  _200
REMARK   81  A    between atoms: _199  and  _202
REMARK   82  A    between atoms: _202  and  _203
REMARK   83  A    between atoms: _208  and  _210
REMARK   84  A    between atoms: _210  and  _211
REMARK   85  A    between atoms: _210  and  _213
REMARK   86  A    between atoms: _213  and  _214
REMARK   87  A    between atoms: _220  and  _222
REMARK   88  A    between atoms: _222  and  _223
REMARK   89  A    between atoms: _225  and  _227
REMARK   90  A    between atoms: _227  and  _228
REMARK   91  A    between atoms: _227  and  _230
REMARK   92  A    between atoms: _233  and  _235
REMARK   93  A    between atoms: _235  and  _236
REMARK   94  A    between atoms: _235  and  _238
REMARK   95  A    between atoms: _238  and  _239
REMARK   96  A    between atoms: _242  and  _244
REMARK   97  A    between atoms: _244  and  _245
REMARK   98  A    between atoms: _244  and  _247
REMARK   99  A    between atoms: _247  and  _248
REMARK  100  A    between atoms: _251  and  _253
REMARK  101  A    between atoms: _253  and  _254
REMARK  102  A    between atoms: _253  and  _256
REMARK  103  A    between atoms: _259  and  _261
REMARK  104  A    between atoms: _261  and  _262
REMARK  105  A    between atoms: _261  and  _264
REMARK  106  A    between atoms: _267  and  _269
REMARK  107  A    between atoms: _269  and  _270
REMARK  108  A    between atoms: _269  and  _272
REMARK  109  A    between atoms: _272  and  _273
REMARK  110  A    between atoms: _276  and  _278
REMARK  111  A    between atoms: _278  and  _279
REMARK  112  A    between atoms: _278  and  _281
REMARK  113  A    between atoms: _281  and  _282
REMARK  114  A    between atoms: _285  and  _287
REMARK  115  A    between atoms: _287  and  _288
REMARK  116  A    between atoms: _287  and  _290
REMARK  117  A    between atoms: _290  and  _291
REMARK  118  A    between atoms: _297  and  _299
REMARK  119  A    between atoms: _299  and  _300
REMARK  120  A    between atoms: _299  and  _302
REMARK  121  A    between atoms: _302  and  _303
REMARK  122  A    between atoms: _309  and  _311
REMARK  123  A    between atoms: _311  and  _312
REMARK  124  A    between atoms: _314  and  _316
REMARK  125  A    between atoms: _316  and  _317
REMARK  126  A    between atoms: _316  and  _319
REMARK  127  A    between atoms: _319  and  _320
REMARK  128  A    between atoms: _320  and  _321
REMARK  129  A    between atoms: _324  and  _326
REMARK  130  A    between atoms: _326  and  _327
REMARK  131  A    between atoms: _326  and  _329
REMARK  132  A    between atoms: _329  and  _330
REMARK  133  A    between atoms: _330  and  _331
REMARK  134  A    between atoms: _331  and  _332
REMARK  135  A    between atoms: _332  and  _333
REMARK  136  A    between atoms: _337  and  _339
REMARK  137  A    between atoms: _339  and  _340
REMARK  138  A    between atoms: _339  and  _342
REMARK  139  A    between atoms: _342  and  _343
REMARK  140  A    between atoms: _346  and  _348
REMARK  141  A    between atoms: _348  and  _349
REMARK  142  A    between atoms: _348  and  _351
REMARK  143  A    between atoms: _351  and  _352
REMARK  144  A    between atoms: _357  and  _358
REMARK  145  A    between atoms: _360  and  _362
REMARK  146  A    between atoms: _362  and  _363
REMARK  147  A    between atoms: _362  and  _365
REMARK  148  A    between atoms: _365  and  _366
REMARK  149  A    between atoms: _366  and  _367
REMARK  150  A    between atoms: _372  and  _374
REMARK  151  A    between atoms: _374  and  _375
REMARK  152  A    between atoms: _374  and  _377
REMARK  153  A    between atoms: _377  and  _378
REMARK  154  A    between atoms: _381  and  _383
REMARK  155  A    between atoms: _383  and  _384
REMARK  156  A    between atoms: _383  and  _386
REMARK  157  A    between atoms: _386  and  _387
REMARK  158  A    between atoms: _390  and  _392
REMARK  159  A    between atoms: _392  and  _393
REMARK  160  A    between atoms: _392  and  _395
REMARK  161  A    between atoms: _398  and  _400
REMARK  162  A    between atoms: _400  and  _401
REMARK  163  A    between atoms: _403  and  _405
REMARK  164  A    between atoms: _405  and  _406
REMARK  165  A    between atoms: _405  and  _408
REMARK  166  A    between atoms: _412  and  _413
REMARK  167  A    between atoms: _418  and  _420
REMARK  168  A    between atoms: _420  and  _421
REMARK  169  A    between atoms: _420  and  _423
REMARK  170  A    between atoms: _423  and  _424
REMARK  171  A    between atoms: _427  and  _429
REMARK  172  A    between atoms: _429  and  _430
REMARK  173  A    between atoms: _429  and  _432
REMARK  174  A    between atoms: _435  and  _437
REMARK  175  A    between atoms: _437  and  _438
REMARK  176  A    between atoms: _437  and  _440
REMARK  177  A    between atoms: _440  and  _441
REMARK  178  A    between atoms: _441  and  _442
REMARK  179  A    between atoms: _442  and  _443
REMARK  180  A    between atoms: _452  and  _454
REMARK  181  A    between atoms: _454  and  _455
REMARK  182  A    between atoms: _454  and  _457
REMARK  183  A    between atoms: _457  and  _458
REMARK  184  A    between atoms: _458  and  _459
REMARK  185  A    between atoms: _462  and  _464
REMARK  186  A    between atoms: _464  and  _465
REMARK  187  A    between atoms: _464  and  _467
REMARK  188  A    between atoms: _467  and  _468
REMARK  189  A    between atoms: _471  and  _473
REMARK  190  A    between atoms: _473  and  _474
REMARK  191  A    between atoms: _477  and  _479
REMARK  192  A    between atoms: _479  and  _480
REMARK  193  A    between atoms: _479  and  _482
REMARK  194  A    between atoms: _482  and  _483
REMARK  195  A    between atoms: _483  and  _484
REMARK  196  A    between atoms: _486  and  _488
REMARK  197  A    between atoms: _488  and  _489
REMARK  198  A    between atoms: _488  and  _491
REMARK  199  A    between atoms: _491  and  _492
REMARK  200  A    between atoms: _494  and  _496
REMARK  201  A    between atoms: _496  and  _497
REMARK  202  A    between atoms: _496  and  _499
REMARK  203  A    between atoms: _499  and  _500
REMARK  204  A    between atoms: _502  and  _504
REMARK  205  A    between atoms: _504  and  _505
REMARK  206  A    between atoms: _504  and  _507
REMARK  207  A    between atoms: _507  and  _508
REMARK  208  A    between atoms: _508  and  _509
REMARK  209  A    between atoms: _509  and  _510
REMARK  210  A    between atoms: _519  and  _521
REMARK  211  A    between atoms: _521  and  _522
REMARK  212  A    between atoms: _521  and  _524
REMARK  213  A    between atoms: _524  and  _525
REMARK  214  A    between atoms: _530  and  _532
REMARK  215  A    between atoms: _532  and  _533
REMARK  216  A    between atoms: _532  and  _535
REMARK  217  A    between atoms: _535  and  _536
REMARK  218  A    between atoms: _539  and  _541
REMARK  219  A    between atoms: _541  and  _542
REMARK  220  A    between atoms: _541  and  _544
REMARK  221  A    between atoms: _544  and  _545
REMARK                            x       y       z     vdW  Elec       q    Type
REMARK                         _______ _______ _______ _____ _____    ______ ____
ROOT
ATOM      1  O   HOH     1      20.098   4.132   2.232  0.00  0.00    +0.000 OA
ENDROOT
TORSDOF 0
REMARK  Name = ../refined-set-2016/3ioc/3ioc_pocket.pdb
REMARK  221 active torsions:
REMARK  status: ('A' for Active; 'I' for Inactive)
REMARK    1  A    between atoms: _1  and  _3
REMARK    2  A    between atoms: _3  and  _4
REMARK    3  A    between atoms: _3  and  _6
REMARK    4  A    between atoms: _10  and  _11
REMARK    5  A    between atoms: _16  and  _18
REMARK    6  A    between atoms: _18  and  _19
REMARK    7  A    between atoms: _18  and  _21
REMARK    8  A    between atoms: _21  and  _22
REMARK    9  A    between atoms: _25  and  _27
REMARK   10  A    between atoms: _27  and  _28
REMARK   11  A    between atoms: _27  and  _30
REMARK   12  A    between atoms: _30  and  _31
REMARK   13  A    between atoms: _31  and  _32
REMARK   14  A    between atoms: _34  and  _36
REMARK   15  A    between atoms: _36  and  _37
REMARK   16  A    between atoms: _39  and  _41
REMARK   17  A    between atoms: _41  and  _42
REMARK   18  A    between atoms: _45  and  _47
REMARK   19  A    between atoms: _47  and  _48
REMARK   20  A    between atoms: _47  and  _50
REMARK   21  A    between atoms: _50  and  _51
REMARK   22  A    between atoms: _54  and  _56
REMARK   23  A    between atoms: _56  and  _57
REMARK   24  A    between atoms: _56  and  _59
REMARK   25  A    between atoms: _59  and  _60
REMARK   26  A    between atoms: _65  and  _67
REMARK   27  A    between atoms: _67  and  _68
REMARK   28  A    between atoms: _67  and  _70
REMARK   29  A    between atoms: _70  and  _71
REMARK   30  A    between atoms: _71  and  _72
REMARK   31  A    between atoms: _75  and  _77
REMARK   32  A    between atoms: _77  and  _78
REMARK   33  A    between atoms: _80  and  _82
REMARK   34  A    between atoms: _82  and  _83
REMARK   35  A    between atoms: _82  and  _85
REMARK   36  A    between atoms: _85  and  _86
REMARK   37  A    between atoms: _91  and  _93
REMARK   38  A    between atoms: _93  and  _94
REMARK   39  A    between atoms: _93  and  _96
REMARK   40  A    between atoms: _96  and  _97
REMARK   41  A    between atoms: _100  and  _102
REMARK   42  A    between atoms: _102  and  _103
REMARK   43  A    between atoms: _106  and  _108
REMARK   44  A    between atoms: _108  and  _109
REMARK   45  A    between atoms: _108  and  _111
REMARK   46  A    between atoms: _111  and  _112
REMARK   47  A    between atoms: _115  and  _117
REMARK   48  A    between atoms: _117  and  _118
REMARK   49  A    between atoms: _117  and  _120
REMARK   50  A    between atoms: _123  and  _125
REMARK   51  A    between atoms: _125  and  _126
REMARK   52  A    between atoms: _125  and  _128
REMARK   53  A    between atoms: _128  and  _129
REMARK   54  A    between atoms: _131  and  _133
REMARK   55  A    between atoms: _133  and  _134
REMARK   56  A    between atoms: _133  and  _136
REMARK   57  A    between atoms: _136  and  _137
REMARK   58  A    between atoms: _140  and  _142
REMARK   59  A    between atoms: _142  and  _143
REMARK   60  A    between atoms: _142  and  _145
REMARK   61  A    between atoms: _145  and  _146
REMARK   62  A    between atoms: _152  and  _154
REMARK   63  A    between atoms: _154  and  _155
REMARK   64  A    between atoms: _154  and  _157
REMARK   65  A    between atoms: _160  and  _162
REMARK   66  A    between atoms: _162  and  _163
REMARK   67  A    between atoms: _162  and  _165
REMARK   68  A    between atoms: _165  and  _166
REMARK   69  A    between atoms: _171  and  _173
REMARK   70  A    between atoms: _173  and  _174
REMARK   71  A    between atoms: _173  and  _176
REMARK   72  A    between atoms: _176  and  _177
REMARK   73  A    between atoms: _177  and  _178
REMARK   74  A    between atoms: _183  and  _185
REMARK   75  A    between atoms: _185  and  _186
REMARK   76  A    between atoms: _185  and  _188
REMARK   77  A    between atoms: _188  and  _189
REMARK   78  A    between atoms: _194  and  _195
REMARK   79  A    between atoms: _197  and  _199
REMARK   80  A    between atoms: _199  and  _200
REMARK   81  A    between atoms: _199  and  _202
REMARK   82  A    between atoms: _202  and  _203
REMARK   83  A    between atoms: _208  and  _210
REMARK   84  A    between atoms: _210  and  _211
REMARK   85  A    between atoms: _210  and  _213
REMARK   86  A    between atoms: _213  and  _214
REMARK   87  A    between atoms: _220  and  _222
REMARK   88  A    between atoms: _222  and  _223
REMARK   89  A    between atoms: _225  and  _227
REMARK   90  A    between atoms: _227  and  _228
REMARK   91  A    between atoms: _227  and  _230
REMARK   92  A    between atoms: _233  and  _235
REMARK   93  A    between atoms: _235  and  _236
REMARK   94  A    between atoms: _235  and  _238
REMARK   95  A    between atoms: _238  and  _239
REMARK   96  A    between atoms: _242  and  _244
REMARK   97  A    between atoms: _244  and  _245
REMARK   98  A    between atoms: _244  and  _247
REMARK   99  A    between atoms: _247  and  _248
REMARK  100  A    between atoms: _251  and  _253
REMARK  101  A    between atoms: _253  and  _254
REMARK  102  A    between atoms: _253  and  _256
REMARK  103  A    between atoms: _259  and  _261
REMARK  104  A    between atoms: _261  and  _262
REMARK  105  A    between atoms: _261  and  _264
REMARK  106  A    between atoms: _267  and  _269
REMARK  107  A    between atoms: _269  and  _270
REMARK  108  A    between atoms: _269  and  _272
REMARK  109  A    between atoms: _272  and  _273
REMARK  110  A    between atoms: _276  and  _278
REMARK  111  A    between atoms: _278  and  _279
REMARK  112  A    between atoms: _278  and  _281
REMARK  113  A    between atoms: _281  and  _282
REMARK  114  A    between atoms: _285  and  _287
REMARK  115  A    between atoms: _287  and  _288
REMARK  116  A    between atoms: _287  and  _290
REMARK  117  A    between atoms: _290  and  _291
REMARK  118  A    between atoms: _297  and  _299
REMARK  119  A    between atoms: _299  and  _300
REMARK  120  A    between atoms: _299  and  _302
REMARK  121  A    between atoms: _302  and  _303
REMARK  122  A    between atoms: _309  and  _311
REMARK  123  A    between atoms: _311  and  _312
REMARK  124  A    between atoms: _314  and  _316
REMARK  125  A    between atoms: _316  and  _317
REMARK  126  A    between atoms: _316  and  _319
REMARK  127  A    between atoms: _319  and  _320
REMARK  128  A    between atoms: _320  and  _321
REMARK  129  A    between atoms: _324  and  _326
REMARK  130  A    between atoms: _326  and  _327
REMARK  131  A    between atoms: _326  and  _329
REMARK  132  A    between atoms: _329  and  _330
REMARK  133  A    between atoms: _330  and  _331
REMARK  134  A    between atoms: _331  and  _332
REMARK  135  A    between atoms: _332  and  _333
REMARK  136  A    between atoms: _337  and  _339
REMARK  137  A    between atoms: _339  and  _340
REMARK  138  A    between atoms: _339  and  _342
REMARK  139  A    between atoms: _342  and  _343
REMARK  140  A    between atoms: _346  and  _348
REMARK  141  A    between atoms: _348  and  _349
REMARK  142  A    between atoms: _348  and  _351
REMARK  143  A    between atoms: _351  and  _352
REMARK  144  A    between atoms: _357  and  _358
REMARK  145  A    between atoms: _360  and  _362
REMARK  146  A    between atoms: _362  and  _363
REMARK  147  A    between atoms: _362  and  _365
REMARK  148  A    between atoms: _365  and  _366
REMARK  149  A    between atoms: _366  and  _367
REMARK  150  A    between atoms: _372  and  _374
REMARK  151  A    between atoms: _374  and  _375
REMARK  152  A    between atoms: _374  and  _377
REMARK  153  A    between atoms: _377  and  _378
REMARK  154  A    between atoms: _381  and  _383
REMARK  155  A    between atoms: _383  and  _384
REMARK  156  A    between atoms: _383  and  _386
REMARK  157  A    between atoms: _386  and  _387
REMARK  158  A    between atoms: _390  and  _392
REMARK  159  A    between atoms: _392  and  _393
REMARK  160  A    between atoms: _392  and  _395
REMARK  161  A    between atoms: _398  and  _400
REMARK  162  A    between atoms: _400  and  _401
REMARK  163  A    between atoms: _403  and  _405
REMARK  164  A    between atoms: _405  and  _406
REMARK  165  A    between atoms: _405  and  _408
REMARK  166  A    between atoms: _412  and  _413
REMARK  167  A    between atoms: _418  and  _420
REMARK  168  A    between atoms: _420  and  _421
REMARK  169  A    between atoms: _420  and  _423
REMARK  170  A    between atoms: _423  and  _424
REMARK  171  A    between atoms: _427  and  _429
REMARK  172  A    between atoms: _429  and  _430
REMARK  173  A    between atoms: _429  and  _432
REMARK  174  A    between atoms: _435  and  _437
REMARK  175  A    between atoms: _437  and  _438
REMARK  176  A    between atoms: _437  and  _440
REMARK  177  A    between atoms: _440  and  _441
REMARK  178  A    between atoms: _441  and  _442
REMARK  179  A    between atoms: _442  and  _443
REMARK  180  A    between atoms: _452  and  _454
REMARK  181  A    between atoms: _454  and  _455
REMARK  182  A    between atoms: _454  and  _457
REMARK  183  A    between atoms: _457  and  _458
REMARK  184  A    between atoms: _458  and  _459
REMARK  185  A    between atoms: _462  and  _464
REMARK  186  A    between atoms: _464  and  _465
REMARK  187  A    between atoms: _464  and  _467
REMARK  188  A    between atoms: _467  and  _468
REMARK  189  A    between atoms: _471  and  _473
REMARK  190  A    between atoms: _473  and  _474
REMARK  191  A    between atoms: _477  and  _479
REMARK  192  A    between atoms: _479  and  _480
REMARK  193  A    between atoms: _479  and  _482
REMARK  194  A    between atoms: _482  and  _483
REMARK  195  A    between atoms: _483  and  _484
REMARK  196  A    between atoms: _486  and  _488
REMARK  197  A    between atoms: _488  and  _489
REMARK  198  A    between atoms: _488  and  _491
REMARK  199  A    between atoms: _491  and  _492
REMARK  200  A    between atoms: _494  and  _496
REMARK  201  A    between atoms: _496  and  _497
REMARK  202  A    between atoms: _496  and  _499
REMARK  203  A    between atoms: _499  and  _500
REMARK  204  A    between atoms: _502  and  _504
REMARK  205  A    between atoms: _504  and  _505
REMARK  206  A    between atoms: _504  and  _507
REMARK  207  A    between atoms: _507  and  _508
REMARK  208  A    between atoms: _508  and  _509
REMARK  209  A    between atoms: _509  and  _510
REMARK  210  A    between atoms: _519  and  _521
REMARK  211  A    between atoms: _521  and  _522
REMARK  212  A    between atoms: _521  and  _524
REMARK  213  A    between atoms: _524  and  _525
REMARK  214  A    between atoms: _530  and  _532
REMARK  215  A    between atoms: _532  and  _533
REMARK  216  A    between atoms: _532  and  _535
REMARK  217  A    between atoms: _535  and  _536
REMARK  218  A    between atoms: _539  and  _541
REMARK  219  A    between atoms: _541  and  _542
REMARK  220  A    between atoms: _541  and  _544
REMARK  221  A    between atoms: _544  and  _545
REMARK                            x       y       z     vdW  Elec       q    Type
REMARK                         _______ _______ _______ _____ _____    ______ ____
ROOT
ATOM      1  O   HOH     1      15.973   3.066  -7.293  0.00  0.00    +0.000 OA
ENDROOT
TORSDOF 0
REMARK  Name = ../refined-set-2016/3ioc/3ioc_pocket.pdb
REMARK  221 active torsions:
REMARK  status: ('A' for Active; 'I' for Inactive)
REMARK    1  A    between atoms: _1  and  _3
REMARK    2  A    between atoms: _3  and  _4
REMARK    3  A    between atoms: _3  and  _6
REMARK    4  A    between atoms: _10  and  _11
REMARK    5  A    between atoms: _16  and  _18
REMARK    6  A    between atoms: _18  and  _19
REMARK    7  A    between atoms: _18  and  _21
REMARK    8  A    between atoms: _21  and  _22
REMARK    9  A    between atoms: _25  and  _27
REMARK   10  A    between atoms: _27  and  _28
REMARK   11  A    between atoms: _27  and  _30
REMARK   12  A    between atoms: _30  and  _31
REMARK   13  A    between atoms: _31  and  _32
REMARK   14  A    between atoms: _34  and  _36
REMARK   15  A    between atoms: _36  and  _37
REMARK   16  A    between atoms: _39  and  _41
REMARK   17  A    between atoms: _41  and  _42
REMARK   18  A    between atoms: _45  and  _47
REMARK   19  A    between atoms: _47  and  _48
REMARK   20  A    between atoms: _47  and  _50
REMARK   21  A    between atoms: _50  and  _51
REMARK   22  A    between atoms: _54  and  _56
REMARK   23  A    between atoms: _56  and  _57
REMARK   24  A    between atoms: _56  and  _59
REMARK   25  A    between atoms: _59  and  _60
REMARK   26  A    between atoms: _65  and  _67
REMARK   27  A    between atoms: _67  and  _68
REMARK   28  A    between atoms: _67  and  _70
REMARK   29  A    between atoms: _70  and  _71
REMARK   30  A    between atoms: _71  and  _72
REMARK   31  A    between atoms: _75  and  _77
REMARK   32  A    between atoms: _77  and  _78
REMARK   33  A    between atoms: _80  and  _82
REMARK   34  A    between atoms: _82  and  _83
REMARK   35  A    between atoms: _82  and  _85
REMARK   36  A    between atoms: _85  and  _86
REMARK   37  A    between atoms: _91  and  _93
REMARK   38  A    between atoms: _93  and  _94
REMARK   39  A    between atoms: _93  and  _96
REMARK   40  A    between atoms: _96  and  _97
REMARK   41  A    between atoms: _100  and  _102
REMARK   42  A    between atoms: _102  and  _103
REMARK   43  A    between atoms: _106  and  _108
REMARK   44  A    between atoms: _108  and  _109
REMARK   45  A    between atoms: _108  and  _111
REMARK   46  A    between atoms: _111  and  _112
REMARK   47  A    between atoms: _115  and  _117
REMARK   48  A    between atoms: _117  and  _118
REMARK   49  A    between atoms: _117  and  _120
REMARK   50  A    between atoms: _123  and  _125
REMARK   51  A    between atoms: _125  and  _126
REMARK   52  A    between atoms: _125  and  _128
REMARK   53  A    between atoms: _128  and  _129
REMARK   54  A    between atoms: _131  and  _133
REMARK   55  A    between atoms: _133  and  _134
REMARK   56  A    between atoms: _133  and  _136
REMARK   57  A    between atoms: _136  and  _137
REMARK   58  A    between atoms: _140  and  _142
REMARK   59  A    between atoms: _142  and  _143
REMARK   60  A    between atoms: _142  and  _145
REMARK   61  A    between atoms: _145  and  _146
REMARK   62  A    between atoms: _152  and  _154
REMARK   63  A    between atoms: _154  and  _155
REMARK   64  A    between atoms: _154  and  _157
REMARK   65  A    between atoms: _160  and  _162
REMARK   66  A    between atoms: _162  and  _163
REMARK   67  A    between atoms: _162  and  _165
REMARK   68  A    between atoms: _165  and  _166
REMARK   69  A    between atoms: _171  and  _173
REMARK   70  A    between atoms: _173  and  _174
REMARK   71  A    between atoms: _173  and  _176
REMARK   72  A    between atoms: _176  and  _177
REMARK   73  A    between atoms: _177  and  _178
REMARK   74  A    between atoms: _183  and  _185
REMARK   75  A    between atoms: _185  and  _186
REMARK   76  A    between atoms: _185  and  _188
REMARK   77  A    between atoms: _188  and  _189
REMARK   78  A    between atoms: _194  and  _195
REMARK   79  A    between atoms: _197  and  _199
REMARK   80  A    between atoms: _199  and  _200
REMARK   81  A    between atoms: _199  and  _202
REMARK   82  A    between atoms: _202  and  _203
REMARK   83  A    between atoms: _208  and  _210
REMARK   84  A    between atoms: _210  and  _211
REMARK   85  A    between atoms: _210  and  _213
REMARK   86  A    between atoms: _213  and  _214
REMARK   87  A    between atoms: _220  and  _222
REMARK   88  A    between atoms: _222  and  _223
REMARK   89  A    between atoms: _225  and  _227
REMARK   90  A    between atoms: _227  and  _228
REMARK   91  A    between atoms: _227  and  _230
REMARK   92  A    between atoms: _233  and  _235
REMARK   93  A    between atoms: _235  and  _236
REMARK   94  A    between atoms: _235  and  _238
REMARK   95  A    between atoms: _238  and  _239
REMARK   96  A    between atoms: _242  and  _244
REMARK   97  A    between atoms: _244  and  _245
REMARK   98  A    between atoms: _244  and  _247
REMARK   99  A    between atoms: _247  and  _248
REMARK  100  A    between atoms: _251  and  _253
REMARK  101  A    between atoms: _253  and  _254
REMARK  102  A    between atoms: _253  and  _256
REMARK  103  A    between atoms: _259  and  _261
REMARK  104  A    between atoms: _261  and  _262
REMARK  105  A    between atoms: _261  and  _264
REMARK  106  A    between atoms: _267  and  _269
REMARK  107  A    between atoms: _269  and  _270
REMARK  108  A    between atoms: _269  and  _272
REMARK  109  A    between atoms: _272  and  _273
REMARK  110  A    between atoms: _276  and  _278
REMARK  111  A    between atoms: _278  and  _279
REMARK  112  A    between atoms: _278  and  _281
REMARK  113  A    between atoms: _281  and  _282
REMARK  114  A    between atoms: _285  and  _287
REMARK  115  A    between atoms: _287  and  _288
REMARK  116  A    between atoms: _287  and  _290
REMARK  117  A    between atoms: _290  and  _291
REMARK  118  A    between atoms: _297  and  _299
REMARK  119  A    between atoms: _299  and  _300
REMARK  120  A    between atoms: _299  and  _302
REMARK  121  A    between atoms: _302  and  _303
REMARK  122  A    between atoms: _309  and  _311
REMARK  123  A    between atoms: _311  and  _312
REMARK  124  A    between atoms: _314  and  _316
REMARK  125  A    between atoms: _316  and  _317
REMARK  126  A    between atoms: _316  and  _319
REMARK  127  A    between atoms: _319  and  _320
REMARK  128  A    between atoms: _320  and  _321
REMARK  129  A    between atoms: _324  and  _326
REMARK  130  A    between atoms: _326  and  _327
REMARK  131  A    between atoms: _326  and  _329
REMARK  132  A    between atoms: _329  and  _330
REMARK  133  A    between atoms: _330  and  _331
REMARK  134  A    between atoms: _331  and  _332
REMARK  135  A    between atoms: _332  and  _333
REMARK  136  A    between atoms: _337  and  _339
REMARK  137  A    between atoms: _339  and  _340
REMARK  138  A    between atoms: _339  and  _342
REMARK  139  A    between atoms: _342  and  _343
REMARK  140  A    between atoms: _346  and  _348
REMARK  141  A    between atoms: _348  and  _349
REMARK  142  A    between atoms: _348  and  _351
REMARK  143  A    between atoms: _351  and  _352
REMARK  144  A    between atoms: _357  and  _358
REMARK  145  A    between atoms: _360  and  _362
REMARK  146  A    between atoms: _362  and  _363
REMARK  147  A    between atoms: _362  and  _365
REMARK  148  A    between atoms: _365  and  _366
REMARK  149  A    between atoms: _366  and  _367
REMARK  150  A    between atoms: _372  and  _374
REMARK  151  A    between atoms: _374  and  _375
REMARK  152  A    between atoms: _374  and  _377
REMARK  153  A    between atoms: _377  and  _378
REMARK  154  A    between atoms: _381  and  _383
REMARK  155  A    between atoms: _383  and  _384
REMARK  156  A    between atoms: _383  and  _386
REMARK  157  A    between atoms: _386  and  _387
REMARK  158  A    between atoms: _390  and  _392
REMARK  159  A    between atoms: _392  and  _393
REMARK  160  A    between atoms: _392  and  _395
REMARK  161  A    between atoms: _398  and  _400
REMARK  162  A    between atoms: _400  and  _401
REMARK  163  A    between atoms: _403  and  _405
REMARK  164  A    between atoms: _405  and  _406
REMARK  165  A    between atoms: _405  and  _408
REMARK  166  A    between atoms: _412  and  _413
REMARK  167  A    between atoms: _418  and  _420
REMARK  168  A    between atoms: _420  and  _421
REMARK  169  A    between atoms: _420  and  _423
REMARK  170  A    between atoms: _423  and  _424
REMARK  171  A    between atoms: _427  and  _429
REMARK  172  A    between atoms: _429  and  _430
REMARK  173  A    between atoms: _429  and  _432
REMARK  174  A    between atoms: _435  and  _437
REMARK  175  A    between atoms: _437  and  _438
REMARK  176  A    between atoms: _437  and  _440
REMARK  177  A    between atoms: _440  and  _441
REMARK  178  A    between atoms: _441  and  _442
REMARK  179  A    between atoms: _442  and  _443
REMARK  180  A    between atoms: _452  and  _454
REMARK  181  A    between atoms: _454  and  _455
REMARK  182  A    between atoms: _454  and  _457
REMARK  183  A    between atoms: _457  and  _458
REMARK  184  A    between atoms: _458  and  _459
REMARK  185  A    between atoms: _462  and  _464
REMARK  186  A    between atoms: _464  and  _465
REMARK  187  A    between atoms: _464  and  _467
REMARK  188  A    between atoms: _467  and  _468
REMARK  189  A    between atoms: _471  and  _473
REMARK  190  A    between atoms: _473  and  _474
REMARK  191  A    between atoms: _477  and  _479
REMARK  192  A    between atoms: _479  and  _480
REMARK  193  A    between atoms: _479  and  _482
REMARK  194  A    between atoms: _482  and  _483
REMARK  195  A    between atoms: _483  and  _484
REMARK  196  A    between atoms: _486  and  _488
REMARK  197  A    between atoms: _488  and  _489
REMARK  198  A    between atoms: _488  and  _491
REMARK  199  A    between atoms: _491  and  _492
REMARK  200  A    between atoms: _494  and  _496
REMARK  201  A    between atoms: _496  and  _497
REMARK  202  A    between atoms: _496  and  _499
REMARK  203  A    between atoms: _499  and  _500
REMARK  204  A    between atoms: _502  and  _504
REMARK  205  A    between atoms: _504  and  _505
REMARK  206  A    between atoms: _504  and  _507
REMARK  207  A    between atoms: _507  and  _508
REMARK  208  A    between atoms: _508  and  _509
REMARK  209  A    between atoms: _509  and  _510
REMARK  210  A    between atoms: _519  and  _521
REMARK  211  A    between atoms: _521  and  _522
REMARK  212  A    between atoms: _521  and  _524
REMARK  213  A    between atoms: _524  and  _525
REMARK  214  A    between atoms: _530  and  _532
REMARK  215  A    between atoms: _532  and  _533
REMARK  216  A    between atoms: _532  and  _535
REMARK  217  A    between atoms: _535  and  _536
REMARK  218  A    between atoms: _539  and  _541
REMARK  219  A    between atoms: _541  and  _542
REMARK  220  A    between atoms: _541  and  _544
REMARK  221  A    between atoms: _544  and  _545
REMARK                            x       y       z     vdW  Elec       q    Type
REMARK                         _______ _______ _______ _____ _____    ______ ____
ROOT
ATOM      1  O   HOH     1      12.571  10.236 -13.239  0.00  0.00    +0.000 OA
ENDROOT
TORSDOF 0
REMARK  Name = ../refined-set-2016/3ioc/3ioc_pocket.pdb
REMARK  221 active torsions:
REMARK  status: ('A' for Active; 'I' for Inactive)
REMARK    1  A    between atoms: _1  and  _3
REMARK    2  A    between atoms: _3  and  _4
REMARK    3  A    between atoms: _3  and  _6
REMARK    4  A    between atoms: _10  and  _11
REMARK    5  A    between atoms: _16  and  _18
REMARK    6  A    between atoms: _18  and  _19
REMARK    7  A    between atoms: _18  and  _21
REMARK    8  A    between atoms: _21  and  _22
REMARK    9  A    between atoms: _25  and  _27
REMARK   10  A    between atoms: _27  and  _28
REMARK   11  A    between atoms: _27  and  _30
REMARK   12  A    between atoms: _30  and  _31
REMARK   13  A    between atoms: _31  and  _32
REMARK   14  A    between atoms: _34  and  _36
REMARK   15  A    between atoms: _36  and  _37
REMARK   16  A    between atoms: _39  and  _41
REMARK   17  A    between atoms: _41  and  _42
REMARK   18  A    between atoms: _45  and  _47
REMARK   19  A    between atoms: _47  and  _48
REMARK   20  A    between atoms: _47  and  _50
REMARK   21  A    between atoms: _50  and  _51
REMARK   22  A    between atoms: _54  and  _56
REMARK   23  A    between atoms: _56  and  _57
REMARK   24  A    between atoms: _56  and  _59
REMARK   25  A    between atoms: _59  and  _60
REMARK   26  A    between atoms: _65  and  _67
REMARK   27  A    between atoms: _67  and  _68
REMARK   28  A    between atoms: _67  and  _70
REMARK   29  A    between atoms: _70  and  _71
REMARK   30  A    between atoms: _71  and  _72
REMARK   31  A    between atoms: _75  and  _77
REMARK   32  A    between atoms: _77  and  _78
REMARK   33  A    between atoms: _80  and  _82
REMARK   34  A    between atoms: _82  and  _83
REMARK   35  A    between atoms: _82  and  _85
REMARK   36  A    between atoms: _85  and  _86
REMARK   37  A    between atoms: _91  and  _93
REMARK   38  A    between atoms: _93  and  _94
REMARK   39  A    between atoms: _93  and  _96
REMARK   40  A    between atoms: _96  and  _97
REMARK   41  A    between atoms: _100  and  _102
REMARK   42  A    between atoms: _102  and  _103
REMARK   43  A    between atoms: _106  and  _108
REMARK   44  A    between atoms: _108  and  _109
REMARK   45  A    between atoms: _108  and  _111
REMARK   46  A    between atoms: _111  and  _112
REMARK   47  A    between atoms: _115  and  _117
REMARK   48  A    between atoms: _117  and  _118
REMARK   49  A    between atoms: _117  and  _120
REMARK   50  A    between atoms: _123  and  _125
REMARK   51  A    between atoms: _125  and  _126
REMARK   52  A    between atoms: _125  and  _128
REMARK   53  A    between atoms: _128  and  _129
REMARK   54  A    between atoms: _131  and  _133
REMARK   55  A    between atoms: _133  and  _134
REMARK   56  A    between atoms: _133  and  _136
REMARK   57  A    between atoms: _136  and  _137
REMARK   58  A    between atoms: _140  and  _142
REMARK   59  A    between atoms: _142  and  _143
REMARK   60  A    between atoms: _142  and  _145
REMARK   61  A    between atoms: _145  and  _146
REMARK   62  A    between atoms: _152  and  _154
REMARK   63  A    between atoms: _154  and  _155
REMARK   64  A    between atoms: _154  and  _157
REMARK   65  A    between atoms: _160  and  _162
REMARK   66  A    between atoms: _162  and  _163
REMARK   67  A    between atoms: _162  and  _165
REMARK   68  A    between atoms: _165  and  _166
REMARK   69  A    between atoms: _171  and  _173
REMARK   70  A    between atoms: _173  and  _174
REMARK   71  A    between atoms: _173  and  _176
REMARK   72  A    between atoms: _176  and  _177
REMARK   73  A    between atoms: _177  and  _178
REMARK   74  A    between atoms: _183  and  _185
REMARK   75  A    between atoms: _185  and  _186
REMARK   76  A    between atoms: _185  and  _188
REMARK   77  A    between atoms: _188  and  _189
REMARK   78  A    between atoms: _194  and  _195
REMARK   79  A    between atoms: _197  and  _199
REMARK   80  A    between atoms: _199  and  _200
REMARK   81  A    between atoms: _199  and  _202
REMARK   82  A    between atoms: _202  and  _203
REMARK   83  A    between atoms: _208  and  _210
REMARK   84  A    between atoms: _210  and  _211
REMARK   85  A    between atoms: _210  and  _213
REMARK   86  A    between atoms: _213  and  _214
REMARK   87  A    between atoms: _220  and  _222
REMARK   88  A    between atoms: _222  and  _223
REMARK   89  A    between atoms: _225  and  _227
REMARK   90  A    between atoms: _227  and  _228
REMARK   91  A    between atoms: _227  and  _230
REMARK   92  A    between atoms: _233  and  _235
REMARK   93  A    between atoms: _235  and  _236
REMARK   94  A    between atoms: _235  and  _238
REMARK   95  A    between atoms: _238  and  _239
REMARK   96  A    between atoms: _242  and  _244
REMARK   97  A    between atoms: _244  and  _245
REMARK   98  A    between atoms: _244  and  _247
REMARK   99  A    between atoms: _247  and  _248
REMARK  100  A    between atoms: _251  and  _253
REMARK  101  A    between atoms: _253  and  _254
REMARK  102  A    between atoms: _253  and  _256
REMARK  103  A    between atoms: _259  and  _261
REMARK  104  A    between atoms: _261  and  _262
REMARK  105  A    between atoms: _261  and  _264
REMARK  106  A    between atoms: _267  and  _269
REMARK  107  A    between atoms: _269  and  _270
REMARK  108  A    between atoms: _269  and  _272
REMARK  109  A    between atoms: _272  and  _273
REMARK  110  A    between atoms: _276  and  _278
REMARK  111  A    between atoms: _278  and  _279
REMARK  112  A    between atoms: _278  and  _281
REMARK  113  A    between atoms: _281  and  _282
REMARK  114  A    between atoms: _285  and  _287
REMARK  115  A    between atoms: _287  and  _288
REMARK  116  A    between atoms: _287  and  _290
REMARK  117  A    between atoms: _290  and  _291
REMARK  118  A    between atoms: _297  and  _299
REMARK  119  A    between atoms: _299  and  _300
REMARK  120  A    between atoms: _299  and  _302
REMARK  121  A    between atoms: _302  and  _303
REMARK  122  A    between atoms: _309  and  _311
REMARK  123  A    between atoms: _311  and  _312
REMARK  124  A    between atoms: _314  and  _316
REMARK  125  A    between atoms: _316  and  _317
REMARK  126  A    between atoms: _316  and  _319
REMARK  127  A    between atoms: _319  and  _320
REMARK  128  A    between atoms: _320  and  _321
REMARK  129  A    between atoms: _324  and  _326
REMARK  130  A    between atoms: _326  and  _327
REMARK  131  A    between atoms: _326  and  _329
REMARK  132  A    between atoms: _329  and  _330
REMARK  133  A    between atoms: _330  and  _331
REMARK  134  A    between atoms: _331  and  _332
REMARK  135  A    between atoms: _332  and  _333
REMARK  136  A    between atoms: _337  and  _339
REMARK  137  A    between atoms: _339  and  _340
REMARK  138  A    between atoms: _339  and  _342
REMARK  139  A    between atoms: _342  and  _343
REMARK  140  A    between atoms: _346  and  _348
REMARK  141  A    between atoms: _348  and  _349
REMARK  142  A    between atoms: _348  and  _351
REMARK  143  A    between atoms: _351  and  _352
REMARK  144  A    between atoms: _357  and  _358
REMARK  145  A    between atoms: _360  and  _362
REMARK  146  A    between atoms: _362  and  _363
REMARK  147  A    between atoms: _362  and  _365
REMARK  148  A    between atoms: _365  and  _366
REMARK  149  A    between atoms: _366  and  _367
REMARK  150  A    between atoms: _372  and  _374
REMARK  151  A    between atoms: _374  and  _375
REMARK  152  A    between atoms: _374  and  _377
REMARK  153  A    between atoms: _377  and  _378
REMARK  154  A    between atoms: _381  and  _383
REMARK  155  A    between atoms: _383  and  _384
REMARK  156  A    between atoms: _383  and  _386
REMARK  157  A    between atoms: _386  and  _387
REMARK  158  A    between atoms: _390  and  _392
REMARK  159  A    between atoms: _392  and  _393
REMARK  160  A    between atoms: _392  and  _395
REMARK  161  A    between atoms: _398  and  _400
REMARK  162  A    between atoms: _400  and  _401
REMARK  163  A    between atoms: _403  and  _405
REMARK  164  A    between atoms: _405  and  _406
REMARK  165  A    between atoms: _405  and  _408
REMARK  166  A    between atoms: _412  and  _413
REMARK  167  A    between atoms: _418  and  _420
REMARK  168  A    between atoms: _420  and  _421
REMARK  169  A    between atoms: _420  and  _423
REMARK  170  A    between atoms: _423  and  _424
REMARK  171  A    between atoms: _427  and  _429
REMARK  172  A    between atoms: _429  and  _430
REMARK  173  A    between atoms: _429  and  _432
REMARK  174  A    between atoms: _435  and  _437
REMARK  175  A    between atoms: _437  and  _438
REMARK  176  A    between atoms: _437  and  _440
REMARK  177  A    between atoms: _440  and  _441
REMARK  178  A    between atoms: _441  and  _442
REMARK  179  A    between atoms: _442  and  _443
REMARK  180  A    between atoms: _452  and  _454
REMARK  181  A    between atoms: _454  and  _455
REMARK  182  A    between atoms: _454  and  _457
REMARK  183  A    between atoms: _457  and  _458
REMARK  184  A    between atoms: _458  and  _459
REMARK  185  A    between atoms: _462  and  _464
REMARK  186  A    between atoms: _464  and  _465
REMARK  187  A    between atoms: _464  and  _467
REMARK  188  A    between atoms: _467  and  _468
REMARK  189  A    between atoms: _471  and  _473
REMARK  190  A    between atoms: _473  and  _474
REMARK  191  A    between atoms: _477  and  _479
REMARK  192  A    between atoms: _479  and  _480
REMARK  193  A    between atoms: _479  and  _482
REMARK  194  A    between atoms: _482  and  _483
REMARK  195  A    between atoms: _483  and  _484
REMARK  196  A    between atoms: _486  and  _488
REMARK  197  A    between atoms: _488  and  _489
REMARK  198  A    between atoms: _488  and  _491
REMARK  199  A    between atoms: _491  and  _492
REMARK  200  A    between atoms: _494  and  _496
REMARK  201  A    between atoms: _496  and  _497
REMARK  202  A    between atoms: _496  and  _499
REMARK  203  A    between atoms: _499  and  _500
REMARK  204  A    between atoms: _502  and  _504
REMARK  205  A    between atoms: _504  and  _505
REMARK  206  A    between atoms: _504  and  _507
REMARK  207  A    between atoms: _507  and  _508
REMARK  208  A    between atoms: _508  and  _509
REMARK  209  A    between atoms: _509  and  _510
REMARK  210  A    between atoms: _519  and  _521
REMARK  211  A    between atoms: _521  and  _522
REMARK  212  A    between atoms: _521  and  _524
REMARK  213  A    between atoms: _524  and  _525
REMARK  214  A    between atoms: _530  and  _532
REMARK  215  A    between atoms: _532  and  _533
REMARK  216  A    between atoms: _532  and  _535
REMARK  217  A    between atoms: _535  and  _536
REMARK  218  A    between atoms: _539  and  _541
REMARK  219  A    between atoms: _541  and  _542
REMARK  220  A    between atoms: _541  and  _544
REMARK  221  A    between atoms: _544  and  _545
REMARK                            x       y       z     vdW  Elec       q    Type
REMARK                         _______ _______ _______ _____ _____    ______ ____
ROOT
ATOM      1  O   HOH     1      19.024  16.253  -7.695  0.00  0.00    +0.000 OA
ENDROOT
TORSDOF 0
REMARK  Name = ../refined-set-2016/3ioc/3ioc_pocket.pdb
REMARK  221 active torsions:
REMARK  status: ('A' for Active; 'I' for Inactive)
REMARK    1  A    between atoms: _1  and  _3
REMARK    2  A    between atoms: _3  and  _4
REMARK    3  A    between atoms: _3  and  _6
REMARK    4  A    between atoms: _10  and  _11
REMARK    5  A    between atoms: _16  and  _18
REMARK    6  A    between atoms: _18  and  _19
REMARK    7  A    between atoms: _18  and  _21
REMARK    8  A    between atoms: _21  and  _22
REMARK    9  A    between atoms: _25  and  _27
REMARK   10  A    between atoms: _27  and  _28
REMARK   11  A    between atoms: _27  and  _30
REMARK   12  A    between atoms: _30  and  _31
REMARK   13  A    between atoms: _31  and  _32
REMARK   14  A    between atoms: _34  and  _36
REMARK   15  A    between atoms: _36  and  _37
REMARK   16  A    between atoms: _39  and  _41
REMARK   17  A    between atoms: _41  and  _42
REMARK   18  A    between atoms: _45  and  _47
REMARK   19  A    between atoms: _47  and  _48
REMARK   20  A    between atoms: _47  and  _50
REMARK   21  A    between atoms: _50  and  _51
REMARK   22  A    between atoms: _54  and  _56
REMARK   23  A    between atoms: _56  and  _57
REMARK   24  A    between atoms: _56  and  _59
REMARK   25  A    between atoms: _59  and  _60
REMARK   26  A    between atoms: _65  and  _67
REMARK   27  A    between atoms: _67  and  _68
REMARK   28  A    between atoms: _67  and  _70
REMARK   29  A    between atoms: _70  and  _71
REMARK   30  A    between atoms: _71  and  _72
REMARK   31  A    between atoms: _75  and  _77
REMARK   32  A    between atoms: _77  and  _78
REMARK   33  A    between atoms: _80  and  _82
REMARK   34  A    between atoms: _82  and  _83
REMARK   35  A    between atoms: _82  and  _85
REMARK   36  A    between atoms: _85  and  _86
REMARK   37  A    between atoms: _91  and  _93
REMARK   38  A    between atoms: _93  and  _94
REMARK   39  A    between atoms: _93  and  _96
REMARK   40  A    between atoms: _96  and  _97
REMARK   41  A    between atoms: _100  and  _102
REMARK   42  A    between atoms: _102  and  _103
REMARK   43  A    between atoms: _106  and  _108
REMARK   44  A    between atoms: _108  and  _109
REMARK   45  A    between atoms: _108  and  _111
REMARK   46  A    between atoms: _111  and  _112
REMARK   47  A    between atoms: _115  and  _117
REMARK   48  A    between atoms: _117  and  _118
REMARK   49  A    between atoms: _117  and  _120
REMARK   50  A    between atoms: _123  and  _125
REMARK   51  A    between atoms: _125  and  _126
REMARK   52  A    between atoms: _125  and  _128
REMARK   53  A    between atoms: _128  and  _129
REMARK   54  A    between atoms: _131  and  _133
REMARK   55  A    between atoms: _133  and  _134
REMARK   56  A    between atoms: _133  and  _136
REMARK   57  A    between atoms: _136  and  _137
REMARK   58  A    between atoms: _140  and  _142
REMARK   59  A    between atoms: _142  and  _143
REMARK   60  A    between atoms: _142  and  _145
REMARK   61  A    between atoms: _145  and  _146
REMARK   62  A    between atoms: _152  and  _154
REMARK   63  A    between atoms: _154  and  _155
REMARK   64  A    between atoms: _154  and  _157
REMARK   65  A    between atoms: _160  and  _162
REMARK   66  A    between atoms: _162  and  _163
REMARK   67  A    between atoms: _162  and  _165
REMARK   68  A    between atoms: _165  and  _166
REMARK   69  A    between atoms: _171  and  _173
REMARK   70  A    between atoms: _173  and  _174
REMARK   71  A    between atoms: _173  and  _176
REMARK   72  A    between atoms: _176  and  _177
REMARK   73  A    between atoms: _177  and  _178
REMARK   74  A    between atoms: _183  and  _185
REMARK   75  A    between atoms: _185  and  _186
REMARK   76  A    between atoms: _185  and  _188
REMARK   77  A    between atoms: _188  and  _189
REMARK   78  A    between atoms: _194  and  _195
REMARK   79  A    between atoms: _197  and  _199
REMARK   80  A    between atoms: _199  and  _200
REMARK   81  A    between atoms: _199  and  _202
REMARK   82  A    between atoms: _202  and  _203
REMARK   83  A    between atoms: _208  and  _210
REMARK   84  A    between atoms: _210  and  _211
REMARK   85  A    between atoms: _210  and  _213
REMARK   86  A    between atoms: _213  and  _214
REMARK   87  A    between atoms: _220  and  _222
REMARK   88  A    between atoms: _222  and  _223
REMARK   89  A    between atoms: _225  and  _227
REMARK   90  A    between atoms: _227  and  _228
REMARK   91  A    between atoms: _227  and  _230
REMARK   92  A    between atoms: _233  and  _235
REMARK   93  A    between atoms: _235  and  _236
REMARK   94  A    between atoms: _235  and  _238
REMARK   95  A    between atoms: _238  and  _239
REMARK   96  A    between atoms: _242  and  _244
REMARK   97  A    between atoms: _244  and  _245
REMARK   98  A    between atoms: _244  and  _247
REMARK   99  A    between atoms: _247  and  _248
REMARK  100  A    between atoms: _251  and  _253
REMARK  101  A    between atoms: _253  and  _254
REMARK  102  A    between atoms: _253  and  _256
REMARK  103  A    between atoms: _259  and  _261
REMARK  104  A    between atoms: _261  and  _262
REMARK  105  A    between atoms: _261  and  _264
REMARK  106  A    between atoms: _267  and  _269
REMARK  107  A    between atoms: _269  and  _270
REMARK  108  A    between atoms: _269  and  _272
REMARK  109  A    between atoms: _272  and  _273
REMARK  110  A    between atoms: _276  and  _278
REMARK  111  A    between atoms: _278  and  _279
REMARK  112  A    between atoms: _278  and  _281
REMARK  113  A    between atoms: _281  and  _282
REMARK  114  A    between atoms: _285  and  _287
REMARK  115  A    between atoms: _287  and  _288
REMARK  116  A    between atoms: _287  and  _290
REMARK  117  A    between atoms: _290  and  _291
REMARK  118  A    between atoms: _297  and  _299
REMARK  119  A    between atoms: _299  and  _300
REMARK  120  A    between atoms: _299  and  _302
REMARK  121  A    between atoms: _302  and  _303
REMARK  122  A    between atoms: _309  and  _311
REMARK  123  A    between atoms: _311  and  _312
REMARK  124  A    between atoms: _314  and  _316
REMARK  125  A    between atoms: _316  and  _317
REMARK  126  A    between atoms: _316  and  _319
REMARK  127  A    between atoms: _319  and  _320
REMARK  128  A    between atoms: _320  and  _321
REMARK  129  A    between atoms: _324  and  _326
REMARK  130  A    between atoms: _326  and  _327
REMARK  131  A    between atoms: _326  and  _329
REMARK  132  A    between atoms: _329  and  _330
REMARK  133  A    between atoms: _330  and  _331
REMARK  134  A    between atoms: _331  and  _332
REMARK  135  A    between atoms: _332  and  _333
REMARK  136  A    between atoms: _337  and  _339
REMARK  137  A    between atoms: _339  and  _340
REMARK  138  A    between atoms: _339  and  _342
REMARK  139  A    between atoms: _342  and  _343
REMARK  140  A    between atoms: _346  and  _348
REMARK  141  A    between atoms: _348  and  _349
REMARK  142  A    between atoms: _348  and  _351
REMARK  143  A    between atoms: _351  and  _352
REMARK  144  A    between atoms: _357  and  _358
REMARK  145  A    between atoms: _360  and  _362
REMARK  146  A    between atoms: _362  and  _363
REMARK  147  A    between atoms: _362  and  _365
REMARK  148  A    between atoms: _365  and  _366
REMARK  149  A    between atoms: _366  and  _367
REMARK  150  A    between atoms: _372  and  _374
REMARK  151  A    between atoms: _374  and  _375
REMARK  152  A    between atoms: _374  and  _377
REMARK  153  A    between atoms: _377  and  _378
REMARK  154  A    between atoms: _381  and  _383
REMARK  155  A    between atoms: _383  and  _384
REMARK  156  A    between atoms: _383  and  _386
REMARK  157  A    between atoms: _386  and  _387
REMARK  158  A    between atoms: _390  and  _392
REMARK  159  A    between atoms: _392  and  _393
REMARK  160  A    between atoms: _392  and  _395
REMARK  161  A    between atoms: _398  and  _400
REMARK  162  A    between atoms: _400  and  _401
REMARK  163  A    between atoms: _403  and  _405
REMARK  164  A    between atoms: _405  and  _406
REMARK  165  A    between atoms: _405  and  _408
REMARK  166  A    between atoms: _412  and  _413
REMARK  167  A    between atoms: _418  and  _420
REMARK  168  A    between atoms: _420  and  _421
REMARK  169  A    between atoms: _420  and  _423
REMARK  170  A    between atoms: _423  and  _424
REMARK  171  A    between atoms: _427  and  _429
REMARK  172  A    between atoms: _429  and  _430
REMARK  173  A    between atoms: _429  and  _432
REMARK  174  A    between atoms: _435  and  _437
REMARK  175  A    between atoms: _437  and  _438
REMARK  176  A    between atoms: _437  and  _440
REMARK  177  A    between atoms: _440  and  _441
REMARK  178  A    between atoms: _441  and  _442
REMARK  179  A    between atoms: _442  and  _443
REMARK  180  A    between atoms: _452  and  _454
REMARK  181  A    between atoms: _454  and  _455
REMARK  182  A    between atoms: _454  and  _457
REMARK  183  A    between atoms: _457  and  _458
REMARK  184  A    between atoms: _458  and  _459
REMARK  185  A    between atoms: _462  and  _464
REMARK  186  A    between atoms: _464  and  _465
REMARK  187  A    between atoms: _464  and  _467
REMARK  188  A    between atoms: _467  and  _468
REMARK  189  A    between atoms: _471  and  _473
REMARK  190  A    between atoms: _473  and  _474
REMARK  191  A    between atoms: _477  and  _479
REMARK  192  A    between atoms: _479  and  _480
REMARK  193  A    between atoms: _479  and  _482
REMARK  194  A    between atoms: _482  and  _483
REMARK  195  A    between atoms: _483  and  _484
REMARK  196  A    between atoms: _486  and  _488
REMARK  197  A    between atoms: _488  and  _489
REMARK  198  A    between atoms: _488  and  _491
REMARK  199  A    between atoms: _491  and  _492
REMARK  200  A    between atoms: _494  and  _496
REMARK  201  A    between atoms: _496  and  _497
REMARK  202  A    between atoms: _496  and  _499
REMARK  203  A    between atoms: _499  and  _500
REMARK  204  A    between atoms: _502  and  _504
REMARK  205  A    between atoms: _504  and  _505
REMARK  206  A    between atoms: _504  and  _507
REMARK  207  A    between atoms: _507  and  _508
REMARK  208  A    between atoms: _508  and  _509
REMARK  209  A    between atoms: _509  and  _510
REMARK  210  A    between atoms: _519  and  _521
REMARK  211  A    between atoms: _521  and  _522
REMARK  212  A    between atoms: _521  and  _524
REMARK  213  A    between atoms: _524  and  _525
REMARK  214  A    between atoms: _530  and  _532
REMARK  215  A    between atoms: _532  and  _533
REMARK  216  A    between atoms: _532  and  _535
REMARK  217  A    between atoms: _535  and  _536
REMARK  218  A    between atoms: _539  and  _541
REMARK  219  A    between atoms: _541  and  _542
REMARK  220  A    between atoms: _541  and  _544
REMARK  221  A    between atoms: _544  and  _545
REMARK                            x       y       z     vdW  Elec       q    Type
REMARK                         _______ _______ _______ _____ _____    ______ ____
ROOT
ATOM      1  O   HOH     1      22.522   7.744   1.163  0.00  0.00    +0.000 OA
ENDROOT
TORSDOF 0
REMARK  Name = ../refined-set-2016/3ioc/3ioc_pocket.pdb
REMARK  221 active torsions:
REMARK  status: ('A' for Active; 'I' for Inactive)
REMARK    1  A    between atoms: _1  and  _3
REMARK    2  A    between atoms: _3  and  _4
REMARK    3  A    between atoms: _3  and  _6
REMARK    4  A    between atoms: _10  and  _11
REMARK    5  A    between atoms: _16  and  _18
REMARK    6  A    between atoms: _18  and  _19
REMARK    7  A    between atoms: _18  and  _21
REMARK    8  A    between atoms: _21  and  _22
REMARK    9  A    between atoms: _25  and  _27
REMARK   10  A    between atoms: _27  and  _28
REMARK   11  A    between atoms: _27  and  _30
REMARK   12  A    between atoms: _30  and  _31
REMARK   13  A    between atoms: _31  and  _32
REMARK   14  A    between atoms: _34  and  _36
REMARK   15  A    between atoms: _36  and  _37
REMARK   16  A    between atoms: _39  and  _41
REMARK   17  A    between atoms: _41  and  _42
REMARK   18  A    between atoms: _45  and  _47
REMARK   19  A    between atoms: _47  and  _48
REMARK   20  A    between atoms: _47  and  _50
REMARK   21  A    between atoms: _50  and  _51
REMARK   22  A    between atoms: _54  and  _56
REMARK   23  A    between atoms: _56  and  _57
REMARK   24  A    between atoms: _56  and  _59
REMARK   25  A    between atoms: _59  and  _60
REMARK   26  A    between atoms: _65  and  _67
REMARK   27  A    between atoms: _67  and  _68
REMARK   28  A    between atoms: _67  and  _70
REMARK   29  A    between atoms: _70  and  _71
REMARK   30  A    between atoms: _71  and  _72
REMARK   31  A    between atoms: _75  and  _77
REMARK   32  A    between atoms: _77  and  _78
REMARK   33  A    between atoms: _80  and  _82
REMARK   34  A    between atoms: _82  and  _83
REMARK   35  A    between atoms: _82  and  _85
REMARK   36  A    between atoms: _85  and  _86
REMARK   37  A    between atoms: _91  and  _93
REMARK   38  A    between atoms: _93  and  _94
REMARK   39  A    between atoms: _93  and  _96
REMARK   40  A    between atoms: _96  and  _97
REMARK   41  A    between atoms: _100  and  _102
REMARK   42  A    between atoms: _102  and  _103
REMARK   43  A    between atoms: _106  and  _108
REMARK   44  A    between atoms: _108  and  _109
REMARK   45  A    between atoms: _108  and  _111
REMARK   46  A    between atoms: _111  and  _112
REMARK   47  A    between atoms: _115  and  _117
REMARK   48  A    between atoms: _117  and  _118
REMARK   49  A    between atoms: _117  and  _120
REMARK   50  A    between atoms: _123  and  _125
REMARK   51  A    between atoms: _125  and  _126
REMARK   52  A    between atoms: _125  and  _128
REMARK   53  A    between atoms: _128  and  _129
REMARK   54  A    between atoms: _131  and  _133
REMARK   55  A    between atoms: _133  and  _134
REMARK   56  A    between atoms: _133  and  _136
REMARK   57  A    between atoms: _136  and  _137
REMARK   58  A    between atoms: _140  and  _142
REMARK   59  A    between atoms: _142  and  _143
REMARK   60  A    between atoms: _142  and  _145
REMARK   61  A    between atoms: _145  and  _146
REMARK   62  A    between atoms: _152  and  _154
REMARK   63  A    between atoms: _154  and  _155
REMARK   64  A    between atoms: _154  and  _157
REMARK   65  A    between atoms: _160  and  _162
REMARK   66  A    between atoms: _162  and  _163
REMARK   67  A    between atoms: _162  and  _165
REMARK   68  A    between atoms: _165  and  _166
REMARK   69  A    between atoms: _171  and  _173
REMARK   70  A    between atoms: _173  and  _174
REMARK   71  A    between atoms: _173  and  _176
REMARK   72  A    between atoms: _176  and  _177
REMARK   73  A    between atoms: _177  and  _178
REMARK   74  A    between atoms: _183  and  _185
REMARK   75  A    between atoms: _185  and  _186
REMARK   76  A    between atoms: _185  and  _188
REMARK   77  A    between atoms: _188  and  _189
REMARK   78  A    between atoms: _194  and  _195
REMARK   79  A    between atoms: _197  and  _199
REMARK   80  A    between atoms: _199  and  _200
REMARK   81  A    between atoms: _199  and  _202
REMARK   82  A    between atoms: _202  and  _203
REMARK   83  A    between atoms: _208  and  _210
REMARK   84  A    between atoms: _210  and  _211
REMARK   85  A    between atoms: _210  and  _213
REMARK   86  A    between atoms: _213  and  _214
REMARK   87  A    between atoms: _220  and  _222
REMARK   88  A    between atoms: _222  and  _223
REMARK   89  A    between atoms: _225  and  _227
REMARK   90  A    between atoms: _227  and  _228
REMARK   91  A    between atoms: _227  and  _230
REMARK   92  A    between atoms: _233  and  _235
REMARK   93  A    between atoms: _235  and  _236
REMARK   94  A    between atoms: _235  and  _238
REMARK   95  A    between atoms: _238  and  _239
REMARK   96  A    between atoms: _242  and  _244
REMARK   97  A    between atoms: _244  and  _245
REMARK   98  A    between atoms: _244  and  _247
REMARK   99  A    between atoms: _247  and  _248
REMARK  100  A    between atoms: _251  and  _253
REMARK  101  A    between atoms: _253  and  _254
REMARK  102  A    between atoms: _253  and  _256
REMARK  103  A    between atoms: _259  and  _261
REMARK  104  A    between atoms: _261  and  _262
REMARK  105  A    between atoms: _261  and  _264
REMARK  106  A    between atoms: _267  and  _269
REMARK  107  A    between atoms: _269  and  _270
REMARK  108  A    between atoms: _269  and  _272
REMARK  109  A    between atoms: _272  and  _273
REMARK  110  A    between atoms: _276  and  _278
REMARK  111  A    between atoms: _278  and  _279
REMARK  112  A    between atoms: _278  and  _281
REMARK  113  A    between atoms: _281  and  _282
REMARK  114  A    between atoms: _285  and  _287
REMARK  115  A    between atoms: _287  and  _288
REMARK  116  A    between atoms: _287  and  _290
REMARK  117  A    between atoms: _290  and  _291
REMARK  118  A    between atoms: _297  and  _299
REMARK  119  A    between atoms: _299  and  _300
REMARK  120  A    between atoms: _299  and  _302
REMARK  121  A    between atoms: _302  and  _303
REMARK  122  A    between atoms: _309  and  _311
REMARK  123  A    between atoms: _311  and  _312
REMARK  124  A    between atoms: _314  and  _316
REMARK  125  A    between atoms: _316  and  _317
REMARK  126  A    between atoms: _316  and  _319
REMARK  127  A    between atoms: _319  and  _320
REMARK  128  A    between atoms: _320  and  _321
REMARK  129  A    between atoms: _324  and  _326
REMARK  130  A    between atoms: _326  and  _327
REMARK  131  A    between atoms: _326  and  _329
REMARK  132  A    between atoms: _329  and  _330
REMARK  133  A    between atoms: _330  and  _331
REMARK  134  A    between atoms: _331  and  _332
REMARK  135  A    between atoms: _332  and  _333
REMARK  136  A    between atoms: _337  and  _339
REMARK  137  A    between atoms: _339  and  _340
REMARK  138  A    between atoms: _339  and  _342
REMARK  139  A    between atoms: _342  and  _343
REMARK  140  A    between atoms: _346  and  _348
REMARK  141  A    between atoms: _348  and  _349
REMARK  142  A    between atoms: _348  and  _351
REMARK  143  A    between atoms: _351  and  _352
REMARK  144  A    between atoms: _357  and  _358
REMARK  145  A    between atoms: _360  and  _362
REMARK  146  A    between atoms: _362  and  _363
REMARK  147  A    between atoms: _362  and  _365
REMARK  148  A    between atoms: _365  and  _366
REMARK  149  A    between atoms: _366  and  _367
REMARK  150  A    between atoms: _372  and  _374
REMARK  151  A    between atoms: _374  and  _375
REMARK  152  A    between atoms: _374  and  _377
REMARK  153  A    between atoms: _377  and  _378
REMARK  154  A    between atoms: _381  and  _383
REMARK  155  A    between atoms: _383  and  _384
REMARK  156  A    between atoms: _383  and  _386
REMARK  157  A    between atoms: _386  and  _387
REMARK  158  A    between atoms: _390  and  _392
REMARK  159  A    between atoms: _392  and  _393
REMARK  160  A    between atoms: _392  and  _395
REMARK  161  A    between atoms: _398  and  _400
REMARK  162  A    between atoms: _400  and  _401
REMARK  163  A    between atoms: _403  and  _405
REMARK  164  A    between atoms: _405  and  _406
REMARK  165  A    between atoms: _405  and  _408
REMARK  166  A    between atoms: _412  and  _413
REMARK  167  A    between atoms: _418  and  _420
REMARK  168  A    between atoms: _420  and  _421
REMARK  169  A    between atoms: _420  and  _423
REMARK  170  A    between atoms: _423  and  _424
REMARK  171  A    between atoms: _427  and  _429
REMARK  172  A    between atoms: _429  and  _430
REMARK  173  A    between atoms: _429  and  _432
REMARK  174  A    between atoms: _435  and  _437
REMARK  175  A    between atoms: _437  and  _438
REMARK  176  A    between atoms: _437  and  _440
REMARK  177  A    between atoms: _440  and  _441
REMARK  178  A    between atoms: _441  and  _442
REMARK  179  A    between atoms: _442  and  _443
REMARK  180  A    between atoms: _452  and  _454
REMARK  181  A    between atoms: _454  and  _455
REMARK  182  A    between atoms: _454  and  _457
REMARK  183  A    between atoms: _457  and  _458
REMARK  184  A    between atoms: _458  and  _459
REMARK  185  A    between atoms: _462  and  _464
REMARK  186  A    between atoms: _464  and  _465
REMARK  187  A    between atoms: _464  and  _467
REMARK  188  A    between atoms: _467  and  _468
REMARK  189  A    between atoms: _471  and  _473
REMARK  190  A    between atoms: _473  and  _474
REMARK  191  A    between atoms: _477  and  _479
REMARK  192  A    between atoms: _479  and  _480
REMARK  193  A    between atoms: _479  and  _482
REMARK  194  A    between atoms: _482  and  _483
REMARK  195  A    between atoms: _483  and  _484
REMARK  196  A    between atoms: _486  and  _488
REMARK  197  A    between atoms: _488  and  _489
REMARK  198  A    between atoms: _488  and  _491
REMARK  199  A    between atoms: _491  and  _492
REMARK  200  A    between atoms: _494  and  _496
REMARK  201  A    between atoms: _496  and  _497
REMARK  202  A    between atoms: _496  and  _499
REMARK  203  A    between atoms: _499  and  _500
REMARK  204  A    between atoms: _502  and  _504
REMARK  205  A    between atoms: _504  and  _505
REMARK  206  A    between atoms: _504  and  _507
REMARK  207  A    between atoms: _507  and  _508
REMARK  208  A    between atoms: _508  and  _509
REMARK  209  A    between atoms: _509  and  _510
REMARK  210  A    between atoms: _519  and  _521
REMARK  211  A    between atoms: _521  and  _522
REMARK  212  A    between atoms: _521  and  _524
REMARK  213  A    between atoms: _524  and  _525
REMARK  214  A    between atoms: _530  and  _532
REMARK  215  A    between atoms: _532  and  _533
REMARK  216  A    between atoms: _532  and  _535
REMARK  217  A    between atoms: _535  and  _536
REMARK  218  A    between atoms: _539  and  _541
REMARK  219  A    between atoms: _541  and  _542
REMARK  220  A    between atoms: _541  and  _544
REMARK  221  A    between atoms: _544  and  _545
REMARK                            x       y       z     vdW  Elec       q    Type
REMARK                         _______ _______ _______ _____ _____    ______ ____
ROOT
ATOM      1  O   HOH     1      22.511  12.989   4.645  0.00  0.00    +0.000 OA
ENDROOT
TORSDOF 0
