REMARK  Name = ../refined-set-2016/4nh7/4nh7_pocket.pdb
REMARK  267 active torsions:
REMARK  status: ('A' for Active; 'I' for Inactive)
REMARK    1  A    between atoms: _1  and  _3
REMARK    2  A    between atoms: _3  and  _4
REMARK    3  A    between atoms: _3  and  _6
REMARK    4  A    between atoms: _6  and  _7
REMARK    5  A    between atoms: _13  and  _15
REMARK    6  A    between atoms: _15  and  _16
REMARK    7  A    between atoms: _15  and  _18
REMARK    8  A    between atoms: _18  and  _19
REMARK    9  A    between atoms: _19  and  _20
REMARK   10  A    between atoms: _25  and  _27
REMARK   11  A    between atoms: _27  and  _28
REMARK   12  A    between atoms: _27  and  _30
REMARK   13  A    between atoms: _30  and  _31
REMARK   14  A    between atoms: _34  and  _36
REMARK   15  A    between atoms: _36  and  _37
REMARK   16  A    between atoms: _36  and  _39
REMARK   17  A    between atoms: _39  and  _40
REMARK   18  A    between atoms: _43  and  _45
REMARK   19  A    between atoms: _45  and  _46
REMARK   20  A    between atoms: _45  and  _48
REMARK   21  A    between atoms: _48  and  _49
REMARK   22  A    between atoms: _49  and  _50
REMARK   23  A    between atoms: _52  and  _54
REMARK   24  A    between atoms: _54  and  _55
REMARK   25  A    between atoms: _54  and  _57
REMARK   26  A    between atoms: _57  and  _58
REMARK   27  A    between atoms: _58  and  _59
REMARK   28  A    between atoms: _62  and  _64
REMARK   29  A    between atoms: _64  and  _65
REMARK   30  A    between atoms: _64  and  _67
REMARK   31  A    between atoms: _67  and  _68
REMARK   32  A    between atoms: _71  and  _73
REMARK   33  A    between atoms: _73  and  _74
REMARK   34  A    between atoms: _73  and  _76
REMARK   35  A    between atoms: _76  and  _77
REMARK   36  A    between atoms: _80  and  _82
REMARK   37  A    between atoms: _82  and  _83
REMARK   38  A    between atoms: _82  and  _85
REMARK   39  A    between atoms: _85  and  _86
REMARK   40  A    between atoms: _88  and  _90
REMARK   41  A    between atoms: _90  and  _91
REMARK   42  A    between atoms: _90  and  _93
REMARK   43  A    between atoms: _93  and  _94
REMARK   44  A    between atoms: _99  and  _101
REMARK   45  A    between atoms: _101  and  _102
REMARK   46  A    between atoms: _101  and  _104
REMARK   47  A    between atoms: _104  and  _105
REMARK   48  A    between atoms: _107  and  _109
REMARK   49  A    between atoms: _109  and  _110
REMARK   50  A    between atoms: _109  and  _112
REMARK   51  A    between atoms: _112  and  _113
REMARK   52  A    between atoms: _115  and  _117
REMARK   53  A    between atoms: _117  and  _118
REMARK   54  A    between atoms: _117  and  _120
REMARK   55  A    between atoms: _120  and  _121
REMARK   56  A    between atoms: _124  and  _126
REMARK   57  A    between atoms: _126  and  _127
REMARK   58  A    between atoms: _130  and  _132
REMARK   59  A    between atoms: _132  and  _133
REMARK   60  A    between atoms: _132  and  _135
REMARK   61  A    between atoms: _135  and  _136
REMARK   62  A    between atoms: _139  and  _141
REMARK   63  A    between atoms: _141  and  _142
REMARK   64  A    between atoms: _141  and  _144
REMARK   65  A    between atoms: _144  and  _145
REMARK   66  A    between atoms: _148  and  _150
REMARK   67  A    between atoms: _150  and  _151
REMARK   68  A    between atoms: _150  and  _153
REMARK   69  A    between atoms: _153  and  _154
REMARK   70  A    between atoms: _154  and  _155
REMARK   71  A    between atoms: _155  and  _156
REMARK   72  A    between atoms: _156  and  _157
REMARK   73  A    between atoms: _161  and  _163
REMARK   74  A    between atoms: _163  and  _164
REMARK   75  A    between atoms: _163  and  _166
REMARK   76  A    between atoms: _166  and  _167
REMARK   77  A    between atoms: _170  and  _172
REMARK   78  A    between atoms: _172  and  _173
REMARK   79  A    between atoms: _172  and  _175
REMARK   80  A    between atoms: _175  and  _176
REMARK   81  A    between atoms: _176  and  _177
REMARK   82  A    between atoms: _180  and  _182
REMARK   83  A    between atoms: _182  and  _183
REMARK   84  A    between atoms: _182  and  _185
REMARK   85  A    between atoms: _185  and  _186
REMARK   86  A    between atoms: _189  and  _191
REMARK   87  A    between atoms: _191  and  _192
REMARK   88  A    between atoms: _191  and  _194
REMARK   89  A    between atoms: _197  and  _199
REMARK   90  A    between atoms: _199  and  _200
REMARK   91  A    between atoms: _199  and  _202
REMARK   92  A    between atoms: _202  and  _203
REMARK   93  A    between atoms: _206  and  _208
REMARK   94  A    between atoms: _208  and  _209
REMARK   95  A    between atoms: _208  and  _211
REMARK   96  A    between atoms: _211  and  _212
REMARK   97  A    between atoms: _215  and  _217
REMARK   98  A    between atoms: _217  and  _218
REMARK   99  A    between atoms: _220  and  _222
REMARK  100  A    between atoms: _222  and  _223
REMARK  101  A    between atoms: _222  and  _225
REMARK  102  A    between atoms: _225  and  _226
REMARK  103  A    between atoms: _229  and  _231
REMARK  104  A    between atoms: _231  and  _232
REMARK  105  A    between atoms: _234  and  _236
REMARK  106  A    between atoms: _236  and  _237
REMARK  107  A    between atoms: _236  and  _239
REMARK  108  A    between atoms: _239  and  _240
REMARK  109  A    between atoms: _240  and  _241
REMARK  110  A    between atoms: _243  and  _245
REMARK  111  A    between atoms: _245  and  _246
REMARK  112  A    between atoms: _245  and  _248
REMARK  113  A    between atoms: _248  and  _249
REMARK  114  A    between atoms: _252  and  _254
REMARK  115  A    between atoms: _254  and  _255
REMARK  116  A    between atoms: _254  and  _257
REMARK  117  A    between atoms: _257  and  _258
REMARK  118  A    between atoms: _258  and  _259
REMARK  119  A    between atoms: _259  and  _260
REMARK  120  A    between atoms: _260  and  _261
REMARK  121  A    between atoms: _265  and  _267
REMARK  122  A    between atoms: _267  and  _268
REMARK  123  A    between atoms: _271  and  _273
REMARK  124  A    between atoms: _273  and  _274
REMARK  125  A    between atoms: _273  and  _276
REMARK  126  A    between atoms: _276  and  _277
REMARK  127  A    between atoms: _280  and  _282
REMARK  128  A    between atoms: _282  and  _283
REMARK  129  A    between atoms: _282  and  _285
REMARK  130  A    between atoms: _285  and  _286
REMARK  131  A    between atoms: _289  and  _291
REMARK  132  A    between atoms: _291  and  _292
REMARK  133  A    between atoms: _291  and  _294
REMARK  134  A    between atoms: _294  and  _295
REMARK  135  A    between atoms: _298  and  _300
REMARK  136  A    between atoms: _300  and  _301
REMARK  137  A    between atoms: _300  and  _303
REMARK  138  A    between atoms: _303  and  _304
REMARK  139  A    between atoms: _309  and  _311
REMARK  140  A    between atoms: _311  and  _312
REMARK  141  A    between atoms: _311  and  _314
REMARK  142  A    between atoms: _314  and  _315
REMARK  143  A    between atoms: _320  and  _322
REMARK  144  A    between atoms: _322  and  _323
REMARK  145  A    between atoms: _322  and  _325
REMARK  146  A    between atoms: _325  and  _326
REMARK  147  A    between atoms: _329  and  _331
REMARK  148  A    between atoms: _331  and  _332
REMARK  149  A    between atoms: _334  and  _336
REMARK  150  A    between atoms: _336  and  _337
REMARK  151  A    between atoms: _336  and  _339
REMARK  152  A    between atoms: _339  and  _340
REMARK  153  A    between atoms: _343  and  _345
REMARK  154  A    between atoms: _345  and  _346
REMARK  155  A    between atoms: _345  and  _348
REMARK  156  A    between atoms: _348  and  _349
REMARK  157  A    between atoms: _352  and  _354
REMARK  158  A    between atoms: _354  and  _355
REMARK  159  A    between atoms: _358  and  _360
REMARK  160  A    between atoms: _360  and  _361
REMARK  161  A    between atoms: _360  and  _363
REMARK  162  A    between atoms: _363  and  _364
REMARK  163  A    between atoms: _364  and  _365
REMARK  164  A    between atoms: _365  and  _366
REMARK  165  A    between atoms: _366  and  _367
REMARK  166  A    between atoms: _371  and  _373
REMARK  167  A    between atoms: _373  and  _374
REMARK  168  A    between atoms: _373  and  _376
REMARK  169  A    between atoms: _376  and  _377
REMARK  170  A    between atoms: _380  and  _382
REMARK  171  A    between atoms: _382  and  _383
REMARK  172  A    between atoms: _382  and  _385
REMARK  173  A    between atoms: _385  and  _386
REMARK  174  A    between atoms: _392  and  _394
REMARK  175  A    between atoms: _394  and  _395
REMARK  176  A    between atoms: _397  and  _399
REMARK  177  A    between atoms: _399  and  _400
REMARK  178  A    between atoms: _399  and  _402
REMARK  179  A    between atoms: _405  and  _407
REMARK  180  A    between atoms: _407  and  _408
REMARK  181  A    between atoms: _410  and  _412
REMARK  182  A    between atoms: _412  and  _413
REMARK  183  A    between atoms: _412  and  _415
REMARK  184  A    between atoms: _415  and  _416
REMARK  185  A    between atoms: _422  and  _424
REMARK  186  A    between atoms: _424  and  _425
REMARK  187  A    between atoms: _424  and  _427
REMARK  188  A    between atoms: _427  and  _428
REMARK  189  A    between atoms: _433  and  _434
REMARK  190  A    between atoms: _436  and  _438
REMARK  191  A    between atoms: _438  and  _439
REMARK  192  A    between atoms: _438  and  _441
REMARK  193  A    between atoms: _441  and  _442
REMARK  194  A    between atoms: _444  and  _446
REMARK  195  A    between atoms: _446  and  _447
REMARK  196  A    between atoms: _446  and  _449
REMARK  197  A    between atoms: _449  and  _450
REMARK  198  A    between atoms: _455  and  _456
REMARK  199  A    between atoms: _458  and  _460
REMARK  200  A    between atoms: _460  and  _461
REMARK  201  A    between atoms: _460  and  _463
REMARK  202  A    between atoms: _466  and  _468
REMARK  203  A    between atoms: _468  and  _469
REMARK  204  A    between atoms: _468  and  _471
REMARK  205  A    between atoms: _471  and  _472
REMARK  206  A    between atoms: _475  and  _477
REMARK  207  A    between atoms: _477  and  _478
REMARK  208  A    between atoms: _477  and  _480
REMARK  209  A    between atoms: _483  and  _485
REMARK  210  A    between atoms: _485  and  _486
REMARK  211  A    between atoms: _485  and  _488
REMARK  212  A    between atoms: _488  and  _489
REMARK  213  A    between atoms: _492  and  _494
REMARK  214  A    between atoms: _494  and  _495
REMARK  215  A    between atoms: _494  and  _497
REMARK  216  A    between atoms: _497  and  _498
REMARK  217  A    between atoms: _501  and  _503
REMARK  218  A    between atoms: _503  and  _504
REMARK  219  A    between atoms: _503  and  _506
REMARK  220  A    between atoms: _506  and  _507
REMARK  221  A    between atoms: _507  and  _508
REMARK  222  A    between atoms: _508  and  _509
REMARK  223  A    between atoms: _509  and  _510
REMARK  224  A    between atoms: _514  and  _516
REMARK  225  A    between atoms: _516  and  _517
REMARK  226  A    between atoms: _516  and  _519
REMARK  227  A    between atoms: _519  and  _520
REMARK  228  A    between atoms: _525  and  _527
REMARK  229  A    between atoms: _527  and  _528
REMARK  230  A    between atoms: _527  and  _530
REMARK  231  A    between atoms: _530  and  _531
REMARK  232  A    between atoms: _541  and  _543
REMARK  233  A    between atoms: _543  and  _544
REMARK  234  A    between atoms: _543  and  _546
REMARK  235  A    between atoms: _546  and  _547
REMARK  236  A    between atoms: _547  and  _548
REMARK  237  A    between atoms: _551  and  _553
REMARK  238  A    between atoms: _553  and  _554
REMARK  239  A    between atoms: _553  and  _556
REMARK  240  A    between atoms: _556  and  _557
REMARK  241  A    between atoms: _559  and  _561
REMARK  242  A    between atoms: _561  and  _562
REMARK  243  A    between atoms: _561  and  _564
REMARK  244  A    between atoms: _564  and  _565
REMARK  245  A    between atoms: _571  and  _573
REMARK  246  A    between atoms: _573  and  _574
REMARK  247  A    between atoms: _573  and  _576
REMARK  248  A    between atoms: _576  and  _577
REMARK  249  A    between atoms: _580  and  _582
REMARK  250  A    between atoms: _582  and  _583
REMARK  251  A    between atoms: _582  and  _585
REMARK  252  A    between atoms: _588  and  _590
REMARK  253  A    between atoms: _590  and  _591
REMARK  254  A    between atoms: _593  and  _595
REMARK  255  A    between atoms: _595  and  _596
REMARK  256  A    between atoms: _595  and  _598
REMARK  257  A    between atoms: _598  and  _599
REMARK  258  A    between atoms: _602  and  _604
REMARK  259  A    between atoms: _604  and  _605
REMARK  260  A    between atoms: _604  and  _607
REMARK  261  A    between atoms: _607  and  _608
REMARK  262  A    between atoms: _608  and  _609
REMARK  263  A    between atoms: _609  and  _610
REMARK  264  A    between atoms: _610  and  _611
REMARK  265  A    between atoms: _615  and  _617
REMARK  266  A    between atoms: _617  and  _618
REMARK  267  A    between atoms: _617  and  _620
REMARK                            x       y       z     vdW  Elec       q    Type
REMARK                         _______ _______ _______ _____ _____    ______ ____
ROOT
ATOM      1  C   PHE A   1       9.454  14.579  29.513  0.00  0.00    +0.239 C 
ATOM      2  O   PHE A   1       8.978  14.975  30.591  0.00  0.00    -0.274 OA
ATOM      3  N   GLN A   2       9.570  13.268  29.183  0.00  0.00    -0.298 N 
ATOM      4  H   GLN A   2       9.925  13.021  28.237  0.00  0.00    +0.150 HD
ENDROOT
BRANCH   1   5
ATOM      5  CA  PHE A   1       9.991  15.608  28.528  0.00  0.00    +0.149 C 
BRANCH   5   6
ATOM      6  N   PHE A   1       9.275  16.849  28.815  0.00  0.00    -0.238 NA
ATOM      7  H   PHE A   1       9.751  17.621  29.324  0.00  0.00    +0.142 HD
ENDBRANCH   5   6
BRANCH   5   8
ATOM      8  CB  PHE A   1      11.472  15.763  28.894  0.00  0.00    +0.053 C 
BRANCH   8   9
ATOM      9  CG  PHE A   1      12.263  16.472  27.852  0.00  0.00    -0.020 A 
ATOM     10  CD2 PHE A   1      12.627  17.808  28.022  0.00  0.00    -0.004 A 
ATOM     11  CE2 PHE A   1      13.349  18.472  27.035  0.00  0.00    -0.000 A 
ATOM     12  CZ  PHE A   1      13.734  17.793  25.876  0.00  0.00    -0.000 A 
ATOM     13  CE1 PHE A   1      13.406  16.459  25.709  0.00  0.00    -0.000 A 
ATOM     14  CD1 PHE A   1      12.659  15.805  26.680  0.00  0.00    -0.004 A 
ENDBRANCH   8   9
ENDBRANCH   5   8
ENDBRANCH   1   5
BRANCH   3  15
ATOM     15  CA  GLN A   2       9.213  12.179  30.110  0.00  0.00    +0.137 C 
BRANCH  15  16
ATOM     16  C   GLN A   2      10.217  12.387  31.278  0.00  0.00    +0.227 C 
ATOM     17  O   GLN A   2      11.362  12.823  31.030  0.00  0.00    -0.286 OA
ENDBRANCH  15  16
BRANCH  15  18
ATOM     18  CB  GLN A   2       9.479  10.796  29.469  0.00  0.00    +0.037 C 
BRANCH  18  19
ATOM     19  CG  GLN A   2       8.444  10.424  28.396  0.00  0.00    +0.087 C 
BRANCH  19  20
ATOM     20  CD  GLN A   2       7.909   9.002  28.415  0.00  0.00    +0.219 C 
ATOM     21  OE1 GLN A   2       7.801   8.337  29.459  0.00  0.00    -0.275 OA
ATOM     22  NE2 GLN A   2       7.493   8.525  27.247  0.00  0.00    -0.329 N 
ATOM     23 HE21 GLN A   2       7.067   7.578  27.194  0.00  0.00    +0.145 HD
ATOM     24 HE22 GLN A   2       7.593   9.099  26.385  0.00  0.00    +0.145 HD
ENDBRANCH  19  20
ENDBRANCH  18  19
ENDBRANCH  15  18
ENDBRANCH   3  15
TORSDOF 9
REMARK  Name = ../refined-set-2016/4nh7/4nh7_pocket.pdb
REMARK  267 active torsions:
REMARK  status: ('A' for Active; 'I' for Inactive)
REMARK    1  A    between atoms: _1  and  _3
REMARK    2  A    between atoms: _3  and  _4
REMARK    3  A    between atoms: _3  and  _6
REMARK    4  A    between atoms: _6  and  _7
REMARK    5  A    between atoms: _13  and  _15
REMARK    6  A    between atoms: _15  and  _16
REMARK    7  A    between atoms: _15  and  _18
REMARK    8  A    between atoms: _18  and  _19
REMARK    9  A    between atoms: _19  and  _20
REMARK   10  A    between atoms: _25  and  _27
REMARK   11  A    between atoms: _27  and  _28
REMARK   12  A    between atoms: _27  and  _30
REMARK   13  A    between atoms: _30  and  _31
REMARK   14  A    between atoms: _34  and  _36
REMARK   15  A    between atoms: _36  and  _37
REMARK   16  A    between atoms: _36  and  _39
REMARK   17  A    between atoms: _39  and  _40
REMARK   18  A    between atoms: _43  and  _45
REMARK   19  A    between atoms: _45  and  _46
REMARK   20  A    between atoms: _45  and  _48
REMARK   21  A    between atoms: _48  and  _49
REMARK   22  A    between atoms: _49  and  _50
REMARK   23  A    between atoms: _52  and  _54
REMARK   24  A    between atoms: _54  and  _55
REMARK   25  A    between atoms: _54  and  _57
REMARK   26  A    between atoms: _57  and  _58
REMARK   27  A    between atoms: _58  and  _59
REMARK   28  A    between atoms: _62  and  _64
REMARK   29  A    between atoms: _64  and  _65
REMARK   30  A    between atoms: _64  and  _67
REMARK   31  A    between atoms: _67  and  _68
REMARK   32  A    between atoms: _71  and  _73
REMARK   33  A    between atoms: _73  and  _74
REMARK   34  A    between atoms: _73  and  _76
REMARK   35  A    between atoms: _76  and  _77
REMARK   36  A    between atoms: _80  and  _82
REMARK   37  A    between atoms: _82  and  _83
REMARK   38  A    between atoms: _82  and  _85
REMARK   39  A    between atoms: _85  and  _86
REMARK   40  A    between atoms: _88  and  _90
REMARK   41  A    between atoms: _90  and  _91
REMARK   42  A    between atoms: _90  and  _93
REMARK   43  A    between atoms: _93  and  _94
REMARK   44  A    between atoms: _99  and  _101
REMARK   45  A    between atoms: _101  and  _102
REMARK   46  A    between atoms: _101  and  _104
REMARK   47  A    between atoms: _104  and  _105
REMARK   48  A    between atoms: _107  and  _109
REMARK   49  A    between atoms: _109  and  _110
REMARK   50  A    between atoms: _109  and  _112
REMARK   51  A    between atoms: _112  and  _113
REMARK   52  A    between atoms: _115  and  _117
REMARK   53  A    between atoms: _117  and  _118
REMARK   54  A    between atoms: _117  and  _120
REMARK   55  A    between atoms: _120  and  _121
REMARK   56  A    between atoms: _124  and  _126
REMARK   57  A    between atoms: _126  and  _127
REMARK   58  A    between atoms: _130  and  _132
REMARK   59  A    between atoms: _132  and  _133
REMARK   60  A    between atoms: _132  and  _135
REMARK   61  A    between atoms: _135  and  _136
REMARK   62  A    between atoms: _139  and  _141
REMARK   63  A    between atoms: _141  and  _142
REMARK   64  A    between atoms: _141  and  _144
REMARK   65  A    between atoms: _144  and  _145
REMARK   66  A    between atoms: _148  and  _150
REMARK   67  A    between atoms: _150  and  _151
REMARK   68  A    between atoms: _150  and  _153
REMARK   69  A    between atoms: _153  and  _154
REMARK   70  A    between atoms: _154  and  _155
REMARK   71  A    between atoms: _155  and  _156
REMARK   72  A    between atoms: _156  and  _157
REMARK   73  A    between atoms: _161  and  _163
REMARK   74  A    between atoms: _163  and  _164
REMARK   75  A    between atoms: _163  and  _166
REMARK   76  A    between atoms: _166  and  _167
REMARK   77  A    between atoms: _170  and  _172
REMARK   78  A    between atoms: _172  and  _173
REMARK   79  A    between atoms: _172  and  _175
REMARK   80  A    between atoms: _175  and  _176
REMARK   81  A    between atoms: _176  and  _177
REMARK   82  A    between atoms: _180  and  _182
REMARK   83  A    between atoms: _182  and  _183
REMARK   84  A    between atoms: _182  and  _185
REMARK   85  A    between atoms: _185  and  _186
REMARK   86  A    between atoms: _189  and  _191
REMARK   87  A    between atoms: _191  and  _192
REMARK   88  A    between atoms: _191  and  _194
REMARK   89  A    between atoms: _197  and  _199
REMARK   90  A    between atoms: _199  and  _200
REMARK   91  A    between atoms: _199  and  _202
REMARK   92  A    between atoms: _202  and  _203
REMARK   93  A    between atoms: _206  and  _208
REMARK   94  A    between atoms: _208  and  _209
REMARK   95  A    between atoms: _208  and  _211
REMARK   96  A    between atoms: _211  and  _212
REMARK   97  A    between atoms: _215  and  _217
REMARK   98  A    between atoms: _217  and  _218
REMARK   99  A    between atoms: _220  and  _222
REMARK  100  A    between atoms: _222  and  _223
REMARK  101  A    between atoms: _222  and  _225
REMARK  102  A    between atoms: _225  and  _226
REMARK  103  A    between atoms: _229  and  _231
REMARK  104  A    between atoms: _231  and  _232
REMARK  105  A    between atoms: _234  and  _236
REMARK  106  A    between atoms: _236  and  _237
REMARK  107  A    between atoms: _236  and  _239
REMARK  108  A    between atoms: _239  and  _240
REMARK  109  A    between atoms: _240  and  _241
REMARK  110  A    between atoms: _243  and  _245
REMARK  111  A    between atoms: _245  and  _246
REMARK  112  A    between atoms: _245  and  _248
REMARK  113  A    between atoms: _248  and  _249
REMARK  114  A    between atoms: _252  and  _254
REMARK  115  A    between atoms: _254  and  _255
REMARK  116  A    between atoms: _254  and  _257
REMARK  117  A    between atoms: _257  and  _258
REMARK  118  A    between atoms: _258  and  _259
REMARK  119  A    between atoms: _259  and  _260
REMARK  120  A    between atoms: _260  and  _261
REMARK  121  A    between atoms: _265  and  _267
REMARK  122  A    between atoms: _267  and  _268
REMARK  123  A    between atoms: _271  and  _273
REMARK  124  A    between atoms: _273  and  _274
REMARK  125  A    between atoms: _273  and  _276
REMARK  126  A    between atoms: _276  and  _277
REMARK  127  A    between atoms: _280  and  _282
REMARK  128  A    between atoms: _282  and  _283
REMARK  129  A    between atoms: _282  and  _285
REMARK  130  A    between atoms: _285  and  _286
REMARK  131  A    between atoms: _289  and  _291
REMARK  132  A    between atoms: _291  and  _292
REMARK  133  A    between atoms: _291  and  _294
REMARK  134  A    between atoms: _294  and  _295
REMARK  135  A    between atoms: _298  and  _300
REMARK  136  A    between atoms: _300  and  _301
REMARK  137  A    between atoms: _300  and  _303
REMARK  138  A    between atoms: _303  and  _304
REMARK  139  A    between atoms: _309  and  _311
REMARK  140  A    between atoms: _311  and  _312
REMARK  141  A    between atoms: _311  and  _314
REMARK  142  A    between atoms: _314  and  _315
REMARK  143  A    between atoms: _320  and  _322
REMARK  144  A    between atoms: _322  and  _323
REMARK  145  A    between atoms: _322  and  _325
REMARK  146  A    between atoms: _325  and  _326
REMARK  147  A    between atoms: _329  and  _331
REMARK  148  A    between atoms: _331  and  _332
REMARK  149  A    between atoms: _334  and  _336
REMARK  150  A    between atoms: _336  and  _337
REMARK  151  A    between atoms: _336  and  _339
REMARK  152  A    between atoms: _339  and  _340
REMARK  153  A    between atoms: _343  and  _345
REMARK  154  A    between atoms: _345  and  _346
REMARK  155  A    between atoms: _345  and  _348
REMARK  156  A    between atoms: _348  and  _349
REMARK  157  A    between atoms: _352  and  _354
REMARK  158  A    between atoms: _354  and  _355
REMARK  159  A    between atoms: _358  and  _360
REMARK  160  A    between atoms: _360  and  _361
REMARK  161  A    between atoms: _360  and  _363
REMARK  162  A    between atoms: _363  and  _364
REMARK  163  A    between atoms: _364  and  _365
REMARK  164  A    between atoms: _365  and  _366
REMARK  165  A    between atoms: _366  and  _367
REMARK  166  A    between atoms: _371  and  _373
REMARK  167  A    between atoms: _373  and  _374
REMARK  168  A    between atoms: _373  and  _376
REMARK  169  A    between atoms: _376  and  _377
REMARK  170  A    between atoms: _380  and  _382
REMARK  171  A    between atoms: _382  and  _383
REMARK  172  A    between atoms: _382  and  _385
REMARK  173  A    between atoms: _385  and  _386
REMARK  174  A    between atoms: _392  and  _394
REMARK  175  A    between atoms: _394  and  _395
REMARK  176  A    between atoms: _397  and  _399
REMARK  177  A    between atoms: _399  and  _400
REMARK  178  A    between atoms: _399  and  _402
REMARK  179  A    between atoms: _405  and  _407
REMARK  180  A    between atoms: _407  and  _408
REMARK  181  A    between atoms: _410  and  _412
REMARK  182  A    between atoms: _412  and  _413
REMARK  183  A    between atoms: _412  and  _415
REMARK  184  A    between atoms: _415  and  _416
REMARK  185  A    between atoms: _422  and  _424
REMARK  186  A    between atoms: _424  and  _425
REMARK  187  A    between atoms: _424  and  _427
REMARK  188  A    between atoms: _427  and  _428
REMARK  189  A    between atoms: _433  and  _434
REMARK  190  A    between atoms: _436  and  _438
REMARK  191  A    between atoms: _438  and  _439
REMARK  192  A    between atoms: _438  and  _441
REMARK  193  A    between atoms: _441  and  _442
REMARK  194  A    between atoms: _444  and  _446
REMARK  195  A    between atoms: _446  and  _447
REMARK  196  A    between atoms: _446  and  _449
REMARK  197  A    between atoms: _449  and  _450
REMARK  198  A    between atoms: _455  and  _456
REMARK  199  A    between atoms: _458  and  _460
REMARK  200  A    between atoms: _460  and  _461
REMARK  201  A    between atoms: _460  and  _463
REMARK  202  A    between atoms: _466  and  _468
REMARK  203  A    between atoms: _468  and  _469
REMARK  204  A    between atoms: _468  and  _471
REMARK  205  A    between atoms: _471  and  _472
REMARK  206  A    between atoms: _475  and  _477
REMARK  207  A    between atoms: _477  and  _478
REMARK  208  A    between atoms: _477  and  _480
REMARK  209  A    between atoms: _483  and  _485
REMARK  210  A    between atoms: _485  and  _486
REMARK  211  A    between atoms: _485  and  _488
REMARK  212  A    between atoms: _488  and  _489
REMARK  213  A    between atoms: _492  and  _494
REMARK  214  A    between atoms: _494  and  _495
REMARK  215  A    between atoms: _494  and  _497
REMARK  216  A    between atoms: _497  and  _498
REMARK  217  A    between atoms: _501  and  _503
REMARK  218  A    between atoms: _503  and  _504
REMARK  219  A    between atoms: _503  and  _506
REMARK  220  A    between atoms: _506  and  _507
REMARK  221  A    between atoms: _507  and  _508
REMARK  222  A    between atoms: _508  and  _509
REMARK  223  A    between atoms: _509  and  _510
REMARK  224  A    between atoms: _514  and  _516
REMARK  225  A    between atoms: _516  and  _517
REMARK  226  A    between atoms: _516  and  _519
REMARK  227  A    between atoms: _519  and  _520
REMARK  228  A    between atoms: _525  and  _527
REMARK  229  A    between atoms: _527  and  _528
REMARK  230  A    between atoms: _527  and  _530
REMARK  231  A    between atoms: _530  and  _531
REMARK  232  A    between atoms: _541  and  _543
REMARK  233  A    between atoms: _543  and  _544
REMARK  234  A    between atoms: _543  and  _546
REMARK  235  A    between atoms: _546  and  _547
REMARK  236  A    between atoms: _547  and  _548
REMARK  237  A    between atoms: _551  and  _553
REMARK  238  A    between atoms: _553  and  _554
REMARK  239  A    between atoms: _553  and  _556
REMARK  240  A    between atoms: _556  and  _557
REMARK  241  A    between atoms: _559  and  _561
REMARK  242  A    between atoms: _561  and  _562
REMARK  243  A    between atoms: _561  and  _564
REMARK  244  A    between atoms: _564  and  _565
REMARK  245  A    between atoms: _571  and  _573
REMARK  246  A    between atoms: _573  and  _574
REMARK  247  A    between atoms: _573  and  _576
REMARK  248  A    between atoms: _576  and  _577
REMARK  249  A    between atoms: _580  and  _582
REMARK  250  A    between atoms: _582  and  _583
REMARK  251  A    between atoms: _582  and  _585
REMARK  252  A    between atoms: _588  and  _590
REMARK  253  A    between atoms: _590  and  _591
REMARK  254  A    between atoms: _593  and  _595
REMARK  255  A    between atoms: _595  and  _596
REMARK  256  A    between atoms: _595  and  _598
REMARK  257  A    between atoms: _598  and  _599
REMARK  258  A    between atoms: _602  and  _604
REMARK  259  A    between atoms: _604  and  _605
REMARK  260  A    between atoms: _604  and  _607
REMARK  261  A    between atoms: _607  and  _608
REMARK  262  A    between atoms: _608  and  _609
REMARK  263  A    between atoms: _609  and  _610
REMARK  264  A    between atoms: _610  and  _611
REMARK  265  A    between atoms: _615  and  _617
REMARK  266  A    between atoms: _617  and  _618
REMARK  267  A    between atoms: _617  and  _620
REMARK                            x       y       z     vdW  Elec       q    Type
REMARK                         _______ _______ _______ _____ _____    ______ ____
ROOT
ATOM      1  CA  ILE A   1      14.730  11.988  30.070  0.00  0.00    +0.133 C 
ENDROOT
BRANCH   1   2
ATOM      2  N   ILE A   1      13.937  11.179  31.013  0.00  0.00    -0.239 NA
ATOM      3  H   ILE A   1      12.947  10.967  30.776  0.00  0.00    +0.142 HD
ENDBRANCH   1   2
BRANCH   1   4
ATOM      4  C   ILE A   1      15.064  13.378  30.676  0.00  0.00    +0.224 C 
ATOM      5  O   ILE A   1      16.222  13.786  30.538  0.00  0.00    -0.287 OA
ENDBRANCH   1   4
BRANCH   1   6
ATOM      6  CB  ILE A   1      14.068  12.017  28.667  0.00  0.00    +0.023 C 
ATOM      7  CG2 ILE A   1      14.714  13.090  27.763  0.00  0.00    +0.002 C 
BRANCH   6   8
ATOM      8  CG1 ILE A   1      14.248  10.595  28.027  0.00  0.00    +0.002 C 
ATOM      9  CD1 ILE A   1      13.368  10.207  26.730  0.00  0.00    +0.000 C 
ENDBRANCH   6   8
ENDBRANCH   1   6
TORSDOF 4
REMARK  Name = ../refined-set-2016/4nh7/4nh7_pocket.pdb
REMARK  267 active torsions:
REMARK  status: ('A' for Active; 'I' for Inactive)
REMARK    1  A    between atoms: _1  and  _3
REMARK    2  A    between atoms: _3  and  _4
REMARK    3  A    between atoms: _3  and  _6
REMARK    4  A    between atoms: _6  and  _7
REMARK    5  A    between atoms: _13  and  _15
REMARK    6  A    between atoms: _15  and  _16
REMARK    7  A    between atoms: _15  and  _18
REMARK    8  A    between atoms: _18  and  _19
REMARK    9  A    between atoms: _19  and  _20
REMARK   10  A    between atoms: _25  and  _27
REMARK   11  A    between atoms: _27  and  _28
REMARK   12  A    between atoms: _27  and  _30
REMARK   13  A    between atoms: _30  and  _31
REMARK   14  A    between atoms: _34  and  _36
REMARK   15  A    between atoms: _36  and  _37
REMARK   16  A    between atoms: _36  and  _39
REMARK   17  A    between atoms: _39  and  _40
REMARK   18  A    between atoms: _43  and  _45
REMARK   19  A    between atoms: _45  and  _46
REMARK   20  A    between atoms: _45  and  _48
REMARK   21  A    between atoms: _48  and  _49
REMARK   22  A    between atoms: _49  and  _50
REMARK   23  A    between atoms: _52  and  _54
REMARK   24  A    between atoms: _54  and  _55
REMARK   25  A    between atoms: _54  and  _57
REMARK   26  A    between atoms: _57  and  _58
REMARK   27  A    between atoms: _58  and  _59
REMARK   28  A    between atoms: _62  and  _64
REMARK   29  A    between atoms: _64  and  _65
REMARK   30  A    between atoms: _64  and  _67
REMARK   31  A    between atoms: _67  and  _68
REMARK   32  A    between atoms: _71  and  _73
REMARK   33  A    between atoms: _73  and  _74
REMARK   34  A    between atoms: _73  and  _76
REMARK   35  A    between atoms: _76  and  _77
REMARK   36  A    between atoms: _80  and  _82
REMARK   37  A    between atoms: _82  and  _83
REMARK   38  A    between atoms: _82  and  _85
REMARK   39  A    between atoms: _85  and  _86
REMARK   40  A    between atoms: _88  and  _90
REMARK   41  A    between atoms: _90  and  _91
REMARK   42  A    between atoms: _90  and  _93
REMARK   43  A    between atoms: _93  and  _94
REMARK   44  A    between atoms: _99  and  _101
REMARK   45  A    between atoms: _101  and  _102
REMARK   46  A    between atoms: _101  and  _104
REMARK   47  A    between atoms: _104  and  _105
REMARK   48  A    between atoms: _107  and  _109
REMARK   49  A    between atoms: _109  and  _110
REMARK   50  A    between atoms: _109  and  _112
REMARK   51  A    between atoms: _112  and  _113
REMARK   52  A    between atoms: _115  and  _117
REMARK   53  A    between atoms: _117  and  _118
REMARK   54  A    between atoms: _117  and  _120
REMARK   55  A    between atoms: _120  and  _121
REMARK   56  A    between atoms: _124  and  _126
REMARK   57  A    between atoms: _126  and  _127
REMARK   58  A    between atoms: _130  and  _132
REMARK   59  A    between atoms: _132  and  _133
REMARK   60  A    between atoms: _132  and  _135
REMARK   61  A    between atoms: _135  and  _136
REMARK   62  A    between atoms: _139  and  _141
REMARK   63  A    between atoms: _141  and  _142
REMARK   64  A    between atoms: _141  and  _144
REMARK   65  A    between atoms: _144  and  _145
REMARK   66  A    between atoms: _148  and  _150
REMARK   67  A    between atoms: _150  and  _151
REMARK   68  A    between atoms: _150  and  _153
REMARK   69  A    between atoms: _153  and  _154
REMARK   70  A    between atoms: _154  and  _155
REMARK   71  A    between atoms: _155  and  _156
REMARK   72  A    between atoms: _156  and  _157
REMARK   73  A    between atoms: _161  and  _163
REMARK   74  A    between atoms: _163  and  _164
REMARK   75  A    between atoms: _163  and  _166
REMARK   76  A    between atoms: _166  and  _167
REMARK   77  A    between atoms: _170  and  _172
REMARK   78  A    between atoms: _172  and  _173
REMARK   79  A    between atoms: _172  and  _175
REMARK   80  A    between atoms: _175  and  _176
REMARK   81  A    between atoms: _176  and  _177
REMARK   82  A    between atoms: _180  and  _182
REMARK   83  A    between atoms: _182  and  _183
REMARK   84  A    between atoms: _182  and  _185
REMARK   85  A    between atoms: _185  and  _186
REMARK   86  A    between atoms: _189  and  _191
REMARK   87  A    between atoms: _191  and  _192
REMARK   88  A    between atoms: _191  and  _194
REMARK   89  A    between atoms: _197  and  _199
REMARK   90  A    between atoms: _199  and  _200
REMARK   91  A    between atoms: _199  and  _202
REMARK   92  A    between atoms: _202  and  _203
REMARK   93  A    between atoms: _206  and  _208
REMARK   94  A    between atoms: _208  and  _209
REMARK   95  A    between atoms: _208  and  _211
REMARK   96  A    between atoms: _211  and  _212
REMARK   97  A    between atoms: _215  and  _217
REMARK   98  A    between atoms: _217  and  _218
REMARK   99  A    between atoms: _220  and  _222
REMARK  100  A    between atoms: _222  and  _223
REMARK  101  A    between atoms: _222  and  _225
REMARK  102  A    between atoms: _225  and  _226
REMARK  103  A    between atoms: _229  and  _231
REMARK  104  A    between atoms: _231  and  _232
REMARK  105  A    between atoms: _234  and  _236
REMARK  106  A    between atoms: _236  and  _237
REMARK  107  A    between atoms: _236  and  _239
REMARK  108  A    between atoms: _239  and  _240
REMARK  109  A    between atoms: _240  and  _241
REMARK  110  A    between atoms: _243  and  _245
REMARK  111  A    between atoms: _245  and  _246
REMARK  112  A    between atoms: _245  and  _248
REMARK  113  A    between atoms: _248  and  _249
REMARK  114  A    between atoms: _252  and  _254
REMARK  115  A    between atoms: _254  and  _255
REMARK  116  A    between atoms: _254  and  _257
REMARK  117  A    between atoms: _257  and  _258
REMARK  118  A    between atoms: _258  and  _259
REMARK  119  A    between atoms: _259  and  _260
REMARK  120  A    between atoms: _260  and  _261
REMARK  121  A    between atoms: _265  and  _267
REMARK  122  A    between atoms: _267  and  _268
REMARK  123  A    between atoms: _271  and  _273
REMARK  124  A    between atoms: _273  and  _274
REMARK  125  A    between atoms: _273  and  _276
REMARK  126  A    between atoms: _276  and  _277
REMARK  127  A    between atoms: _280  and  _282
REMARK  128  A    between atoms: _282  and  _283
REMARK  129  A    between atoms: _282  and  _285
REMARK  130  A    between atoms: _285  and  _286
REMARK  131  A    between atoms: _289  and  _291
REMARK  132  A    between atoms: _291  and  _292
REMARK  133  A    between atoms: _291  and  _294
REMARK  134  A    between atoms: _294  and  _295
REMARK  135  A    between atoms: _298  and  _300
REMARK  136  A    between atoms: _300  and  _301
REMARK  137  A    between atoms: _300  and  _303
REMARK  138  A    between atoms: _303  and  _304
REMARK  139  A    between atoms: _309  and  _311
REMARK  140  A    between atoms: _311  and  _312
REMARK  141  A    between atoms: _311  and  _314
REMARK  142  A    between atoms: _314  and  _315
REMARK  143  A    between atoms: _320  and  _322
REMARK  144  A    between atoms: _322  and  _323
REMARK  145  A    between atoms: _322  and  _325
REMARK  146  A    between atoms: _325  and  _326
REMARK  147  A    between atoms: _329  and  _331
REMARK  148  A    between atoms: _331  and  _332
REMARK  149  A    between atoms: _334  and  _336
REMARK  150  A    between atoms: _336  and  _337
REMARK  151  A    between atoms: _336  and  _339
REMARK  152  A    between atoms: _339  and  _340
REMARK  153  A    between atoms: _343  and  _345
REMARK  154  A    between atoms: _345  and  _346
REMARK  155  A    between atoms: _345  and  _348
REMARK  156  A    between atoms: _348  and  _349
REMARK  157  A    between atoms: _352  and  _354
REMARK  158  A    between atoms: _354  and  _355
REMARK  159  A    between atoms: _358  and  _360
REMARK  160  A    between atoms: _360  and  _361
REMARK  161  A    between atoms: _360  and  _363
REMARK  162  A    between atoms: _363  and  _364
REMARK  163  A    between atoms: _364  and  _365
REMARK  164  A    between atoms: _365  and  _366
REMARK  165  A    between atoms: _366  and  _367
REMARK  166  A    between atoms: _371  and  _373
REMARK  167  A    between atoms: _373  and  _374
REMARK  168  A    between atoms: _373  and  _376
REMARK  169  A    between atoms: _376  and  _377
REMARK  170  A    between atoms: _380  and  _382
REMARK  171  A    between atoms: _382  and  _383
REMARK  172  A    between atoms: _382  and  _385
REMARK  173  A    between atoms: _385  and  _386
REMARK  174  A    between atoms: _392  and  _394
REMARK  175  A    between atoms: _394  and  _395
REMARK  176  A    between atoms: _397  and  _399
REMARK  177  A    between atoms: _399  and  _400
REMARK  178  A    between atoms: _399  and  _402
REMARK  179  A    between atoms: _405  and  _407
REMARK  180  A    between atoms: _407  and  _408
REMARK  181  A    between atoms: _410  and  _412
REMARK  182  A    between atoms: _412  and  _413
REMARK  183  A    between atoms: _412  and  _415
REMARK  184  A    between atoms: _415  and  _416
REMARK  185  A    between atoms: _422  and  _424
REMARK  186  A    between atoms: _424  and  _425
REMARK  187  A    between atoms: _424  and  _427
REMARK  188  A    between atoms: _427  and  _428
REMARK  189  A    between atoms: _433  and  _434
REMARK  190  A    between atoms: _436  and  _438
REMARK  191  A    between atoms: _438  and  _439
REMARK  192  A    between atoms: _438  and  _441
REMARK  193  A    between atoms: _441  and  _442
REMARK  194  A    between atoms: _444  and  _446
REMARK  195  A    between atoms: _446  and  _447
REMARK  196  A    between atoms: _446  and  _449
REMARK  197  A    between atoms: _449  and  _450
REMARK  198  A    between atoms: _455  and  _456
REMARK  199  A    between atoms: _458  and  _460
REMARK  200  A    between atoms: _460  and  _461
REMARK  201  A    between atoms: _460  and  _463
REMARK  202  A    between atoms: _466  and  _468
REMARK  203  A    between atoms: _468  and  _469
REMARK  204  A    between atoms: _468  and  _471
REMARK  205  A    between atoms: _471  and  _472
REMARK  206  A    between atoms: _475  and  _477
REMARK  207  A    between atoms: _477  and  _478
REMARK  208  A    between atoms: _477  and  _480
REMARK  209  A    between atoms: _483  and  _485
REMARK  210  A    between atoms: _485  and  _486
REMARK  211  A    between atoms: _485  and  _488
REMARK  212  A    between atoms: _488  and  _489
REMARK  213  A    between atoms: _492  and  _494
REMARK  214  A    between atoms: _494  and  _495
REMARK  215  A    between atoms: _494  and  _497
REMARK  216  A    between atoms: _497  and  _498
REMARK  217  A    between atoms: _501  and  _503
REMARK  218  A    between atoms: _503  and  _504
REMARK  219  A    between atoms: _503  and  _506
REMARK  220  A    between atoms: _506  and  _507
REMARK  221  A    between atoms: _507  and  _508
REMARK  222  A    between atoms: _508  and  _509
REMARK  223  A    between atoms: _509  and  _510
REMARK  224  A    between atoms: _514  and  _516
REMARK  225  A    between atoms: _516  and  _517
REMARK  226  A    between atoms: _516  and  _519
REMARK  227  A    between atoms: _519  and  _520
REMARK  228  A    between atoms: _525  and  _527
REMARK  229  A    between atoms: _527  and  _528
REMARK  230  A    between atoms: _527  and  _530
REMARK  231  A    between atoms: _530  and  _531
REMARK  232  A    between atoms: _541  and  _543
REMARK  233  A    between atoms: _543  and  _544
REMARK  234  A    between atoms: _543  and  _546
REMARK  235  A    between atoms: _546  and  _547
REMARK  236  A    between atoms: _547  and  _548
REMARK  237  A    between atoms: _551  and  _553
REMARK  238  A    between atoms: _553  and  _554
REMARK  239  A    between atoms: _553  and  _556
REMARK  240  A    between atoms: _556  and  _557
REMARK  241  A    between atoms: _559  and  _561
REMARK  242  A    between atoms: _561  and  _562
REMARK  243  A    between atoms: _561  and  _564
REMARK  244  A    between atoms: _564  and  _565
REMARK  245  A    between atoms: _571  and  _573
REMARK  246  A    between atoms: _573  and  _574
REMARK  247  A    between atoms: _573  and  _576
REMARK  248  A    between atoms: _576  and  _577
REMARK  249  A    between atoms: _580  and  _582
REMARK  250  A    between atoms: _582  and  _583
REMARK  251  A    between atoms: _582  and  _585
REMARK  252  A    between atoms: _588  and  _590
REMARK  253  A    between atoms: _590  and  _591
REMARK  254  A    between atoms: _593  and  _595
REMARK  255  A    between atoms: _595  and  _596
REMARK  256  A    between atoms: _595  and  _598
REMARK  257  A    between atoms: _598  and  _599
REMARK  258  A    between atoms: _602  and  _604
REMARK  259  A    between atoms: _604  and  _605
REMARK  260  A    between atoms: _604  and  _607
REMARK  261  A    between atoms: _607  and  _608
REMARK  262  A    between atoms: _608  and  _609
REMARK  263  A    between atoms: _609  and  _610
REMARK  264  A    between atoms: _610  and  _611
REMARK  265  A    between atoms: _615  and  _617
REMARK  266  A    between atoms: _617  and  _618
REMARK  267  A    between atoms: _617  and  _620
REMARK                            x       y       z     vdW  Elec       q    Type
REMARK                         _______ _______ _______ _____ _____    ______ ____
ROOT
ATOM      1  C   LEU A   1      19.640  13.825  31.846  0.00  0.00    +0.238 C 
ATOM      2  O   LEU A   1      20.835  14.060  32.003  0.00  0.00    -0.274 OA
ATOM      3  N   MET A   2      18.796  14.676  31.239  0.00  0.00    -0.298 N 
ATOM      4  H   MET A   2      17.796  14.403  31.156  0.00  0.00    +0.150 HD
ENDROOT
BRANCH   1   5
ATOM      5  CA  LEU A   1      19.067  12.499  32.386  0.00  0.00    +0.145 C 
BRANCH   5   6
ATOM      6  N   LEU A   1      17.819  12.735  33.125  0.00  0.00    -0.238 NA
ATOM      7  H   LEU A   1      16.937  12.315  32.768  0.00  0.00    +0.142 HD
ENDBRANCH   5   6
BRANCH   5   8
ATOM      8  CB  LEU A   1      18.858  11.457  31.266  0.00  0.00    +0.026 C 
BRANCH   8   9
ATOM      9  CG  LEU A   1      20.014  11.254  30.261  0.00  0.00    +0.002 C 
ATOM     10  CD2 LEU A   1      21.247  10.667  30.917  0.00  0.00    +0.000 C 
ATOM     11  CD1 LEU A   1      19.581  10.501  29.044  0.00  0.00    +0.000 C 
ENDBRANCH   8   9
ENDBRANCH   5   8
ENDBRANCH   1   5
BRANCH   3  12
ATOM     12  CA  MET A   2      19.216  15.981  30.683  0.00  0.00    +0.138 C 
BRANCH  12  13
ATOM     13  C   MET A   2      19.756  16.875  31.790  0.00  0.00    +0.227 C 
ATOM     14  O   MET A   2      20.797  17.481  31.596  0.00  0.00    -0.286 OA
ENDBRANCH  12  13
BRANCH  12  15
ATOM     15  CB  MET A   2      18.067  16.690  29.944  0.00  0.00    +0.039 C 
BRANCH  15  16
ATOM     16  CG  MET A   2      17.690  15.992  28.705  0.00  0.00    +0.060 C 
BRANCH  16  17
ATOM     17  SD  MET A   2      16.329  16.784  27.911  0.00  0.00    -0.139 S 
ATOM     18  CE  MET A   2      17.175  18.020  27.012  0.00  0.00    +0.069 C 
ENDBRANCH  16  17
ENDBRANCH  15  16
ENDBRANCH  12  15
ENDBRANCH   3  12
TORSDOF 9
REMARK  Name = ../refined-set-2016/4nh7/4nh7_pocket.pdb
REMARK  267 active torsions:
REMARK  status: ('A' for Active; 'I' for Inactive)
REMARK    1  A    between atoms: _1  and  _3
REMARK    2  A    between atoms: _3  and  _4
REMARK    3  A    between atoms: _3  and  _6
REMARK    4  A    between atoms: _6  and  _7
REMARK    5  A    between atoms: _13  and  _15
REMARK    6  A    between atoms: _15  and  _16
REMARK    7  A    between atoms: _15  and  _18
REMARK    8  A    between atoms: _18  and  _19
REMARK    9  A    between atoms: _19  and  _20
REMARK   10  A    between atoms: _25  and  _27
REMARK   11  A    between atoms: _27  and  _28
REMARK   12  A    between atoms: _27  and  _30
REMARK   13  A    between atoms: _30  and  _31
REMARK   14  A    between atoms: _34  and  _36
REMARK   15  A    between atoms: _36  and  _37
REMARK   16  A    between atoms: _36  and  _39
REMARK   17  A    between atoms: _39  and  _40
REMARK   18  A    between atoms: _43  and  _45
REMARK   19  A    between atoms: _45  and  _46
REMARK   20  A    between atoms: _45  and  _48
REMARK   21  A    between atoms: _48  and  _49
REMARK   22  A    between atoms: _49  and  _50
REMARK   23  A    between atoms: _52  and  _54
REMARK   24  A    between atoms: _54  and  _55
REMARK   25  A    between atoms: _54  and  _57
REMARK   26  A    between atoms: _57  and  _58
REMARK   27  A    between atoms: _58  and  _59
REMARK   28  A    between atoms: _62  and  _64
REMARK   29  A    between atoms: _64  and  _65
REMARK   30  A    between atoms: _64  and  _67
REMARK   31  A    between atoms: _67  and  _68
REMARK   32  A    between atoms: _71  and  _73
REMARK   33  A    between atoms: _73  and  _74
REMARK   34  A    between atoms: _73  and  _76
REMARK   35  A    between atoms: _76  and  _77
REMARK   36  A    between atoms: _80  and  _82
REMARK   37  A    between atoms: _82  and  _83
REMARK   38  A    between atoms: _82  and  _85
REMARK   39  A    between atoms: _85  and  _86
REMARK   40  A    between atoms: _88  and  _90
REMARK   41  A    between atoms: _90  and  _91
REMARK   42  A    between atoms: _90  and  _93
REMARK   43  A    between atoms: _93  and  _94
REMARK   44  A    between atoms: _99  and  _101
REMARK   45  A    between atoms: _101  and  _102
REMARK   46  A    between atoms: _101  and  _104
REMARK   47  A    between atoms: _104  and  _105
REMARK   48  A    between atoms: _107  and  _109
REMARK   49  A    between atoms: _109  and  _110
REMARK   50  A    between atoms: _109  and  _112
REMARK   51  A    between atoms: _112  and  _113
REMARK   52  A    between atoms: _115  and  _117
REMARK   53  A    between atoms: _117  and  _118
REMARK   54  A    between atoms: _117  and  _120
REMARK   55  A    between atoms: _120  and  _121
REMARK   56  A    between atoms: _124  and  _126
REMARK   57  A    between atoms: _126  and  _127
REMARK   58  A    between atoms: _130  and  _132
REMARK   59  A    between atoms: _132  and  _133
REMARK   60  A    between atoms: _132  and  _135
REMARK   61  A    between atoms: _135  and  _136
REMARK   62  A    between atoms: _139  and  _141
REMARK   63  A    between atoms: _141  and  _142
REMARK   64  A    between atoms: _141  and  _144
REMARK   65  A    between atoms: _144  and  _145
REMARK   66  A    between atoms: _148  and  _150
REMARK   67  A    between atoms: _150  and  _151
REMARK   68  A    between atoms: _150  and  _153
REMARK   69  A    between atoms: _153  and  _154
REMARK   70  A    between atoms: _154  and  _155
REMARK   71  A    between atoms: _155  and  _156
REMARK   72  A    between atoms: _156  and  _157
REMARK   73  A    between atoms: _161  and  _163
REMARK   74  A    between atoms: _163  and  _164
REMARK   75  A    between atoms: _163  and  _166
REMARK   76  A    between atoms: _166  and  _167
REMARK   77  A    between atoms: _170  and  _172
REMARK   78  A    between atoms: _172  and  _173
REMARK   79  A    between atoms: _172  and  _175
REMARK   80  A    between atoms: _175  and  _176
REMARK   81  A    between atoms: _176  and  _177
REMARK   82  A    between atoms: _180  and  _182
REMARK   83  A    between atoms: _182  and  _183
REMARK   84  A    between atoms: _182  and  _185
REMARK   85  A    between atoms: _185  and  _186
REMARK   86  A    between atoms: _189  and  _191
REMARK   87  A    between atoms: _191  and  _192
REMARK   88  A    between atoms: _191  and  _194
REMARK   89  A    between atoms: _197  and  _199
REMARK   90  A    between atoms: _199  and  _200
REMARK   91  A    between atoms: _199  and  _202
REMARK   92  A    between atoms: _202  and  _203
REMARK   93  A    between atoms: _206  and  _208
REMARK   94  A    between atoms: _208  and  _209
REMARK   95  A    between atoms: _208  and  _211
REMARK   96  A    between atoms: _211  and  _212
REMARK   97  A    between atoms: _215  and  _217
REMARK   98  A    between atoms: _217  and  _218
REMARK   99  A    between atoms: _220  and  _222
REMARK  100  A    between atoms: _222  and  _223
REMARK  101  A    between atoms: _222  and  _225
REMARK  102  A    between atoms: _225  and  _226
REMARK  103  A    between atoms: _229  and  _231
REMARK  104  A    between atoms: _231  and  _232
REMARK  105  A    between atoms: _234  and  _236
REMARK  106  A    between atoms: _236  and  _237
REMARK  107  A    between atoms: _236  and  _239
REMARK  108  A    between atoms: _239  and  _240
REMARK  109  A    between atoms: _240  and  _241
REMARK  110  A    between atoms: _243  and  _245
REMARK  111  A    between atoms: _245  and  _246
REMARK  112  A    between atoms: _245  and  _248
REMARK  113  A    between atoms: _248  and  _249
REMARK  114  A    between atoms: _252  and  _254
REMARK  115  A    between atoms: _254  and  _255
REMARK  116  A    between atoms: _254  and  _257
REMARK  117  A    between atoms: _257  and  _258
REMARK  118  A    between atoms: _258  and  _259
REMARK  119  A    between atoms: _259  and  _260
REMARK  120  A    between atoms: _260  and  _261
REMARK  121  A    between atoms: _265  and  _267
REMARK  122  A    between atoms: _267  and  _268
REMARK  123  A    between atoms: _271  and  _273
REMARK  124  A    between atoms: _273  and  _274
REMARK  125  A    between atoms: _273  and  _276
REMARK  126  A    between atoms: _276  and  _277
REMARK  127  A    between atoms: _280  and  _282
REMARK  128  A    between atoms: _282  and  _283
REMARK  129  A    between atoms: _282  and  _285
REMARK  130  A    between atoms: _285  and  _286
REMARK  131  A    between atoms: _289  and  _291
REMARK  132  A    between atoms: _291  and  _292
REMARK  133  A    between atoms: _291  and  _294
REMARK  134  A    between atoms: _294  and  _295
REMARK  135  A    between atoms: _298  and  _300
REMARK  136  A    between atoms: _300  and  _301
REMARK  137  A    between atoms: _300  and  _303
REMARK  138  A    between atoms: _303  and  _304
REMARK  139  A    between atoms: _309  and  _311
REMARK  140  A    between atoms: _311  and  _312
REMARK  141  A    between atoms: _311  and  _314
REMARK  142  A    between atoms: _314  and  _315
REMARK  143  A    between atoms: _320  and  _322
REMARK  144  A    between atoms: _322  and  _323
REMARK  145  A    between atoms: _322  and  _325
REMARK  146  A    between atoms: _325  and  _326
REMARK  147  A    between atoms: _329  and  _331
REMARK  148  A    between atoms: _331  and  _332
REMARK  149  A    between atoms: _334  and  _336
REMARK  150  A    between atoms: _336  and  _337
REMARK  151  A    between atoms: _336  and  _339
REMARK  152  A    between atoms: _339  and  _340
REMARK  153  A    between atoms: _343  and  _345
REMARK  154  A    between atoms: _345  and  _346
REMARK  155  A    between atoms: _345  and  _348
REMARK  156  A    between atoms: _348  and  _349
REMARK  157  A    between atoms: _352  and  _354
REMARK  158  A    between atoms: _354  and  _355
REMARK  159  A    between atoms: _358  and  _360
REMARK  160  A    between atoms: _360  and  _361
REMARK  161  A    between atoms: _360  and  _363
REMARK  162  A    between atoms: _363  and  _364
REMARK  163  A    between atoms: _364  and  _365
REMARK  164  A    between atoms: _365  and  _366
REMARK  165  A    between atoms: _366  and  _367
REMARK  166  A    between atoms: _371  and  _373
REMARK  167  A    between atoms: _373  and  _374
REMARK  168  A    between atoms: _373  and  _376
REMARK  169  A    between atoms: _376  and  _377
REMARK  170  A    between atoms: _380  and  _382
REMARK  171  A    between atoms: _382  and  _383
REMARK  172  A    between atoms: _382  and  _385
REMARK  173  A    between atoms: _385  and  _386
REMARK  174  A    between atoms: _392  and  _394
REMARK  175  A    between atoms: _394  and  _395
REMARK  176  A    between atoms: _397  and  _399
REMARK  177  A    between atoms: _399  and  _400
REMARK  178  A    between atoms: _399  and  _402
REMARK  179  A    between atoms: _405  and  _407
REMARK  180  A    between atoms: _407  and  _408
REMARK  181  A    between atoms: _410  and  _412
REMARK  182  A    between atoms: _412  and  _413
REMARK  183  A    between atoms: _412  and  _415
REMARK  184  A    between atoms: _415  and  _416
REMARK  185  A    between atoms: _422  and  _424
REMARK  186  A    between atoms: _424  and  _425
REMARK  187  A    between atoms: _424  and  _427
REMARK  188  A    between atoms: _427  and  _428
REMARK  189  A    between atoms: _433  and  _434
REMARK  190  A    between atoms: _436  and  _438
REMARK  191  A    between atoms: _438  and  _439
REMARK  192  A    between atoms: _438  and  _441
REMARK  193  A    between atoms: _441  and  _442
REMARK  194  A    between atoms: _444  and  _446
REMARK  195  A    between atoms: _446  and  _447
REMARK  196  A    between atoms: _446  and  _449
REMARK  197  A    between atoms: _449  and  _450
REMARK  198  A    between atoms: _455  and  _456
REMARK  199  A    between atoms: _458  and  _460
REMARK  200  A    between atoms: _460  and  _461
REMARK  201  A    between atoms: _460  and  _463
REMARK  202  A    between atoms: _466  and  _468
REMARK  203  A    between atoms: _468  and  _469
REMARK  204  A    between atoms: _468  and  _471
REMARK  205  A    between atoms: _471  and  _472
REMARK  206  A    between atoms: _475  and  _477
REMARK  207  A    between atoms: _477  and  _478
REMARK  208  A    between atoms: _477  and  _480
REMARK  209  A    between atoms: _483  and  _485
REMARK  210  A    between atoms: _485  and  _486
REMARK  211  A    between atoms: _485  and  _488
REMARK  212  A    between atoms: _488  and  _489
REMARK  213  A    between atoms: _492  and  _494
REMARK  214  A    between atoms: _494  and  _495
REMARK  215  A    between atoms: _494  and  _497
REMARK  216  A    between atoms: _497  and  _498
REMARK  217  A    between atoms: _501  and  _503
REMARK  218  A    between atoms: _503  and  _504
REMARK  219  A    between atoms: _503  and  _506
REMARK  220  A    between atoms: _506  and  _507
REMARK  221  A    between atoms: _507  and  _508
REMARK  222  A    between atoms: _508  and  _509
REMARK  223  A    between atoms: _509  and  _510
REMARK  224  A    between atoms: _514  and  _516
REMARK  225  A    between atoms: _516  and  _517
REMARK  226  A    between atoms: _516  and  _519
REMARK  227  A    between atoms: _519  and  _520
REMARK  228  A    between atoms: _525  and  _527
REMARK  229  A    between atoms: _527  and  _528
REMARK  230  A    between atoms: _527  and  _530
REMARK  231  A    between atoms: _530  and  _531
REMARK  232  A    between atoms: _541  and  _543
REMARK  233  A    between atoms: _543  and  _544
REMARK  234  A    between atoms: _543  and  _546
REMARK  235  A    between atoms: _546  and  _547
REMARK  236  A    between atoms: _547  and  _548
REMARK  237  A    between atoms: _551  and  _553
REMARK  238  A    between atoms: _553  and  _554
REMARK  239  A    between atoms: _553  and  _556
REMARK  240  A    between atoms: _556  and  _557
REMARK  241  A    between atoms: _559  and  _561
REMARK  242  A    between atoms: _561  and  _562
REMARK  243  A    between atoms: _561  and  _564
REMARK  244  A    between atoms: _564  and  _565
REMARK  245  A    between atoms: _571  and  _573
REMARK  246  A    between atoms: _573  and  _574
REMARK  247  A    between atoms: _573  and  _576
REMARK  248  A    between atoms: _576  and  _577
REMARK  249  A    between atoms: _580  and  _582
REMARK  250  A    between atoms: _582  and  _583
REMARK  251  A    between atoms: _582  and  _585
REMARK  252  A    between atoms: _588  and  _590
REMARK  253  A    between atoms: _590  and  _591
REMARK  254  A    between atoms: _593  and  _595
REMARK  255  A    between atoms: _595  and  _596
REMARK  256  A    between atoms: _595  and  _598
REMARK  257  A    between atoms: _598  and  _599
REMARK  258  A    between atoms: _602  and  _604
REMARK  259  A    between atoms: _604  and  _605
REMARK  260  A    between atoms: _604  and  _607
REMARK  261  A    between atoms: _607  and  _608
REMARK  262  A    between atoms: _608  and  _609
REMARK  263  A    between atoms: _609  and  _610
REMARK  264  A    between atoms: _610  and  _611
REMARK  265  A    between atoms: _615  and  _617
REMARK  266  A    between atoms: _617  and  _618
REMARK  267  A    between atoms: _617  and  _620
REMARK                            x       y       z     vdW  Elec       q    Type
REMARK                         _______ _______ _______ _____ _____    ______ ____
ROOT
ATOM      1  CA  SER A   7      24.968   6.570  10.600  0.00  0.00    +0.178 C 
ENDROOT
BRANCH   1   2
ATOM      2  C   SER A   7      23.821   5.557  10.691  0.00  0.00    +0.243 C 
ATOM      3  N   ASP A   8      23.143   5.445  11.879  0.00  0.00    -0.296 N 
ATOM      4  H   ASP A   8      23.465   6.000  12.697  0.00  0.00    +0.150 HD
ATOM      5  O   SER A   7      23.562   4.888   9.694  0.00  0.00    -0.273 OA
BRANCH   3   6
ATOM      6  CA  ASP A   8      21.971   4.560  12.030  0.00  0.00    +0.160 C 
BRANCH   6   7
ATOM      7  C   ASP A   8      20.848   5.057  11.118  0.00  0.00    +0.241 C 
ATOM      8  N   ALA A   9      20.666   6.393  10.985  0.00  0.00    -0.297 N 
ATOM      9  H   ALA A   9      21.286   7.054  11.495  0.00  0.00    +0.150 HD
ATOM     10  O   ASP A   8      20.153   4.225  10.548  0.00  0.00    -0.273 OA
BRANCH   8  11
ATOM     11  CA  ALA A   9      19.577   6.919  10.107  0.00  0.00    +0.149 C 
ATOM     12  CB  ALA A   9      19.332   8.404  10.360  0.00  0.00    +0.031 C 
BRANCH  11  13
ATOM     13  C   ALA A   9      19.852   6.661   8.606  0.00  0.00    +0.241 C 
ATOM     14  N   LEU A  10      21.128   6.674   8.224  0.00  0.00    -0.297 N 
ATOM     15  H   LEU A  10      21.850   6.881   8.943  0.00  0.00    +0.150 HD
ATOM     16  O   ALA A   9      18.906   6.469   7.832  0.00  0.00    -0.273 OA
BRANCH  14  17
ATOM     17  CA  LEU A  10      21.575   6.417   6.863  0.00  0.00    +0.149 C 
BRANCH  17  18
ATOM     18  C   LEU A  10      21.468   4.928   6.550  0.00  0.00    +0.241 C 
ATOM     19  N   ASP A  11      21.764   4.085   7.531  0.00  0.00    -0.297 N 
ATOM     20  H   ASP A  11      22.106   4.470   8.435  0.00  0.00    +0.150 HD
ATOM     21  O   LEU A  10      21.076   4.568   5.439  0.00  0.00    -0.273 OA
BRANCH  19  22
ATOM     22  CA  ASP A  11      21.626   2.607   7.388  0.00  0.00    +0.160 C 
BRANCH  22  23
ATOM     23  C   ASP A  11      20.162   2.276   7.175  0.00  0.00    +0.241 C 
ATOM     24  N   LYS A  12      19.236   2.954   7.908  0.00  0.00    -0.297 N 
ATOM     25  H   LYS A  12      19.569   3.683   8.571  0.00  0.00    +0.150 HD
ATOM     26  O   ASP A  11      19.899   1.496   6.291  0.00  0.00    -0.273 OA
BRANCH  24  27
ATOM     27  CA  LYS A  12      17.772   2.704   7.809  0.00  0.00    +0.149 C 
BRANCH  27  28
ATOM     28  C   LYS A  12      17.197   3.081   6.471  0.00  0.00    +0.241 C 
ATOM     29  N   ILE A  13      17.527   4.259   5.958  0.00  0.00    -0.298 N 
ATOM     30  H   ILE A  13      18.158   4.890   6.491  0.00  0.00    +0.150 HD
ATOM     31  O   LYS A  12      16.416   2.315   5.938  0.00  0.00    -0.273 OA
BRANCH  29  32
ATOM     32  CA  ILE A  13      17.012   4.688   4.642  0.00  0.00    +0.137 C 
BRANCH  32  33
ATOM     33  CB  ILE A  13      17.115   6.227   4.351  0.00  0.00    +0.026 C 
ATOM     34  CG2 ILE A  13      18.554   6.723   4.298  0.00  0.00    +0.002 C 
BRANCH  33  35
ATOM     35  CG1 ILE A  13      16.301   6.656   3.063  0.00  0.00    +0.002 C 
ATOM     36  CD1 ILE A  13      14.709   6.433   3.180  0.00  0.00    +0.000 C 
ENDBRANCH  33  35
ENDBRANCH  32  33
BRANCH  32  37
ATOM     37  C   ILE A  13      17.617   3.811   3.536  0.00  0.00    +0.227 C 
ATOM     38  O   ILE A  13      16.867   3.431   2.642  0.00  0.00    -0.286 OA
ENDBRANCH  32  37
ENDBRANCH  29  32
ENDBRANCH  27  28
BRANCH  27  39
ATOM     39  CB  LYS A  12      16.993   3.381   8.957  0.00  0.00    +0.029 C 
BRANCH  39  40
ATOM     40  CG  LYS A  12      15.602   2.777   9.114  0.00  0.00    +0.000 C 
BRANCH  40  41
ATOM     41  CD  LYS A  12      14.880   3.204  10.402  0.00  0.00    -0.024 C 
BRANCH  41  42
ATOM     42  CE  LYS A  12      13.569   2.428  10.543  0.00  0.00    -0.086 C 
BRANCH  42  43
ATOM     43  NZ  LYS A  12      12.983   2.608  11.888  0.00  0.00    +0.380 N 
ATOM     44  HZ1 LYS A  12      13.652   2.263  12.605  0.00  0.00    -0.089 HD
ATOM     45  HZ2 LYS A  12      12.791   3.617  12.049  0.00  0.00    -0.089 HD
ATOM     46  HZ3 LYS A  12      12.095   2.070  11.953  0.00  0.00    -0.089 HD
ENDBRANCH  42  43
ENDBRANCH  41  42
ENDBRANCH  40  41
ENDBRANCH  39  40
ENDBRANCH  27  39
ENDBRANCH  24  27
ENDBRANCH  22  23
BRANCH  22  47
ATOM     47  CB  ASP A  11      22.087   1.839   8.626  0.00  0.00    +0.143 C 
BRANCH  47  48
ATOM     48  CG  ASP A  11      23.573   1.747   8.794  0.00  0.00    +0.367 C 
ATOM     49  OD2 ASP A  11      23.997   1.466   9.898  0.00  0.00    -0.246 OA
ATOM     50  OD1 ASP A  11      24.313   1.873   7.764  0.00  0.00    -0.246 OA
ENDBRANCH  47  48
ENDBRANCH  22  47
ENDBRANCH  19  22
ENDBRANCH  17  18
BRANCH  17  51
ATOM     51  CB  LEU A  10      22.974   6.942   6.673  0.00  0.00    +0.029 C 
BRANCH  51  52
ATOM     52  CG  LEU A  10      23.060   8.498   6.625  0.00  0.00    +0.002 C 
ATOM     53  CD2 LEU A  10      24.432   8.929   7.056  0.00  0.00    +0.000 C 
ATOM     54  CD1 LEU A  10      22.759   9.021   5.199  0.00  0.00    +0.000 C 
ENDBRANCH  51  52
ENDBRANCH  17  51
ENDBRANCH  14  17
ENDBRANCH  11  13
ENDBRANCH   8  11
ENDBRANCH   6   7
BRANCH   6  55
ATOM     55  CB  ASP A   8      21.444   4.537  13.489  0.00  0.00    +0.143 C 
BRANCH  55  56
ATOM     56  CG  ASP A   8      22.382   3.839  14.448  0.00  0.00    +0.367 C 
ATOM     57  OD2 ASP A   8      22.117   3.886  15.654  0.00  0.00    -0.246 OA
ATOM     58  OD1 ASP A   8      23.378   3.200  13.969  0.00  0.00    -0.246 OA
ENDBRANCH  55  56
ENDBRANCH   6  55
ENDBRANCH   3   6
ENDBRANCH   1   2
BRANCH   1  60
ATOM     59  C   SER A   6      23.574   8.627  10.840  0.00  0.00    +0.243 C 
ATOM     60  N   SER A   7      24.599   7.839  11.244  0.00  0.00    -0.295 N 
ATOM     61  H   SER A   7      25.161   8.152  12.062  0.00  0.00    +0.150 HD
ATOM     62  O   SER A   6      22.854   8.375   9.874  0.00  0.00    -0.273 OA
BRANCH  59  63
ATOM     63  CA  SER A   6      23.308   9.903  11.628  0.00  0.00    +0.178 C 
BRANCH  63  66
ATOM     64  C   ASN A   5      22.484   8.755  13.708  0.00  0.00    +0.241 C 
ATOM     65  O   ASN A   5      21.616   8.102  13.124  0.00  0.00    -0.273 OA
ATOM     66  N   SER A   6      23.313   9.614  13.076  0.00  0.00    -0.295 N 
ATOM     67  H   SER A   6      24.014  10.114  13.659  0.00  0.00    +0.150 HD
BRANCH  64  68
ATOM     68  CA  ASN A   5      22.708   8.583  15.214  0.00  0.00    +0.158 C 
BRANCH  68  70
ATOM     69  C   SER A   4      24.899   7.385  14.945  0.00  0.00    +0.243 C 
ATOM     70  N   ASN A   5      24.150   8.396  15.460  0.00  0.00    -0.297 N 
ATOM     71  H   ASN A   5      24.629   9.088  16.072  0.00  0.00    +0.150 HD
ATOM     72  O   SER A   4      24.454   6.522  14.218  0.00  0.00    -0.273 OA
BRANCH  69  73
ATOM     73  CA  SER A   4      26.388   7.382  15.245  0.00  0.00    +0.178 C 
BRANCH  73  75
ATOM     74  C   ILE A   3      26.958   9.466  14.039  0.00  0.00    +0.241 C 
ATOM     75  N   SER A   4      26.933   8.762  15.205  0.00  0.00    -0.295 N 
ATOM     76  H   SER A   4      27.300   9.196  16.076  0.00  0.00    +0.150 HD
ATOM     77  O   ILE A   3      26.494   9.028  12.989  0.00  0.00    -0.273 OA
BRANCH  74  78
ATOM     78  CA  ILE A   3      27.533  10.917  14.048  0.00  0.00    +0.149 C 
BRANCH  78  80
ATOM     79  C   LEU A   2      25.863  11.802  15.647  0.00  0.00    +0.241 C 
ATOM     80  N   ILE A   3      27.122  11.541  15.330  0.00  0.00    -0.297 N 
ATOM     81  H   ILE A   3      27.863  11.787  16.017  0.00  0.00    +0.150 HD
ATOM     82  O   LEU A   2      24.917  11.581  14.893  0.00  0.00    -0.273 OA
BRANCH  79  83
ATOM     83  CA  LEU A   2      25.617  12.354  17.052  0.00  0.00    +0.149 C 
BRANCH  83  85
ATOM     84  C   GLU A   1      26.356  10.441  18.447  0.00  0.00    +0.238 C 
ATOM     85  N   LEU A   2      26.491  11.710  18.050  0.00  0.00    -0.297 N 
ATOM     86  H   LEU A   2      27.256  12.276  18.469  0.00  0.00    +0.150 HD
ATOM     87  O   GLU A   1      25.503   9.698  18.008  0.00  0.00    -0.274 OA
BRANCH  84  88
ATOM     88  CA  GLU A   1      27.329   9.923  19.494  0.00  0.00    +0.145 C 
BRANCH  88  89
ATOM     89  N   GLU A   1      28.721  10.284  19.195  0.00  0.00    -0.238 NA
ATOM     90  H   GLU A   1      29.220  10.895  19.872  0.00  0.00    +0.142 HD
ENDBRANCH  88  89
BRANCH  88  91
ATOM     91  CB  GLU A   1      26.913  10.346  20.937  0.00  0.00    +0.038 C 
BRANCH  91  92
ATOM     92  CG  GLU A   1      27.655   9.602  22.057  0.00  0.00    +0.116 C 
BRANCH  92  93
ATOM     93  CD  GLU A   1      27.683   8.081  21.998  0.00  0.00    +0.365 C 
ATOM     94  OE2 GLU A   1      28.687   7.489  22.444  0.00  0.00    -0.246 OA
ATOM     95  OE1 GLU A   1      26.720   7.481  21.475  0.00  0.00    -0.246 OA
ENDBRANCH  92  93
ENDBRANCH  91  92
ENDBRANCH  88  91
ENDBRANCH  84  88
ENDBRANCH  83  85
BRANCH  83  96
ATOM     96  CB  LEU A   2      25.808  13.880  17.117  0.00  0.00    +0.029 C 
BRANCH  96  97
ATOM     97  CG  LEU A   2      25.373  14.487  18.468  0.00  0.00    +0.002 C 
ATOM     98  CD2 LEU A   2      23.938  14.087  18.849  0.00  0.00    +0.000 C 
ATOM     99  CD1 LEU A   2      25.417  15.997  18.412  0.00  0.00    +0.000 C 
ENDBRANCH  96  97
ENDBRANCH  83  96
ENDBRANCH  79  83
ENDBRANCH  78  80
BRANCH  78 100
ATOM    100  CB  ILE A   3      29.066  10.971  13.802  0.00  0.00    +0.027 C 
ATOM    101  CG2 ILE A   3      29.464  10.040  12.592  0.00  0.00    +0.002 C 
BRANCH 100 102
ATOM    102  CG1 ILE A   3      29.530  12.430  13.517  0.00  0.00    +0.002 C 
ATOM    103  CD1 ILE A   3      31.170  12.578  13.533  0.00  0.00    +0.000 C 
ENDBRANCH 100 102
ENDBRANCH  78 100
ENDBRANCH  74  78
ENDBRANCH  73  75
BRANCH  73 104
ATOM    104  CB  SER A   4      26.723   6.673  16.545  0.00  0.00    +0.166 C 
BRANCH 104 105
ATOM    105  OG  SER A   4      28.141   6.598  16.618  0.00  0.00    -0.380 OA
ATOM    106  H   SER A   4      28.520   7.513  16.608  0.00  0.00    +0.211 HD
ENDBRANCH 104 105
ENDBRANCH  73 104
ENDBRANCH  69  73
ENDBRANCH  68  70
BRANCH  68 107
ATOM    107  CB  ASN A   5      22.234   9.847  15.953  0.00  0.00    +0.114 C 
BRANCH 107 108
ATOM    108  CG  ASN A   5      22.167   9.777  17.464  0.00  0.00    +0.222 C 
ATOM    109  OD1 ASN A   5      21.951   8.736  18.092  0.00  0.00    -0.275 OA
ATOM    110  ND2 ASN A   5      22.256  10.929  18.071  0.00  0.00    -0.329 N 
ATOM    111 HD21 ASN A   5      22.144  10.983  19.104  0.00  0.00    +0.145 HD
ATOM    112 HD22 ASN A   5      22.439  11.793  17.522  0.00  0.00    +0.145 HD
ENDBRANCH 107 108
ENDBRANCH  68 107
ENDBRANCH  64  68
ENDBRANCH  63  66
BRANCH  63 113
ATOM    113  CB  SER A   6      24.363  10.956  11.288  0.00  0.00    +0.166 C 
BRANCH 113 114
ATOM    114  OG  SER A   6      23.934  12.267  11.642  0.00  0.00    -0.380 OA
ATOM    115  H   SER A   6      23.104  12.486  11.148  0.00  0.00    +0.211 HD
ENDBRANCH 113 114
ENDBRANCH  63 113
ENDBRANCH  59  63
ENDBRANCH   1  60
BRANCH   1 116
ATOM    116  CB  SER A   7      26.226   5.988  11.225  0.00  0.00    +0.166 C 
BRANCH 116 117
ATOM    117  OG  SER A   7      26.534   4.805  10.521  0.00  0.00    -0.380 OA
ATOM    118  H   SER A   7      25.779   4.169  10.600  0.00  0.00    +0.211 HD
ENDBRANCH 116 117
ENDBRANCH   1 116
TORSDOF 54
REMARK  Name = ../refined-set-2016/4nh7/4nh7_pocket.pdb
REMARK  267 active torsions:
REMARK  status: ('A' for Active; 'I' for Inactive)
REMARK    1  A    between atoms: _1  and  _3
REMARK    2  A    between atoms: _3  and  _4
REMARK    3  A    between atoms: _3  and  _6
REMARK    4  A    between atoms: _6  and  _7
REMARK    5  A    between atoms: _13  and  _15
REMARK    6  A    between atoms: _15  and  _16
REMARK    7  A    between atoms: _15  and  _18
REMARK    8  A    between atoms: _18  and  _19
REMARK    9  A    between atoms: _19  and  _20
REMARK   10  A    between atoms: _25  and  _27
REMARK   11  A    between atoms: _27  and  _28
REMARK   12  A    between atoms: _27  and  _30
REMARK   13  A    between atoms: _30  and  _31
REMARK   14  A    between atoms: _34  and  _36
REMARK   15  A    between atoms: _36  and  _37
REMARK   16  A    between atoms: _36  and  _39
REMARK   17  A    between atoms: _39  and  _40
REMARK   18  A    between atoms: _43  and  _45
REMARK   19  A    between atoms: _45  and  _46
REMARK   20  A    between atoms: _45  and  _48
REMARK   21  A    between atoms: _48  and  _49
REMARK   22  A    between atoms: _49  and  _50
REMARK   23  A    between atoms: _52  and  _54
REMARK   24  A    between atoms: _54  and  _55
REMARK   25  A    between atoms: _54  and  _57
REMARK   26  A    between atoms: _57  and  _58
REMARK   27  A    between atoms: _58  and  _59
REMARK   28  A    between atoms: _62  and  _64
REMARK   29  A    between atoms: _64  and  _65
REMARK   30  A    between atoms: _64  and  _67
REMARK   31  A    between atoms: _67  and  _68
REMARK   32  A    between atoms: _71  and  _73
REMARK   33  A    between atoms: _73  and  _74
REMARK   34  A    between atoms: _73  and  _76
REMARK   35  A    between atoms: _76  and  _77
REMARK   36  A    between atoms: _80  and  _82
REMARK   37  A    between atoms: _82  and  _83
REMARK   38  A    between atoms: _82  and  _85
REMARK   39  A    between atoms: _85  and  _86
REMARK   40  A    between atoms: _88  and  _90
REMARK   41  A    between atoms: _90  and  _91
REMARK   42  A    between atoms: _90  and  _93
REMARK   43  A    between atoms: _93  and  _94
REMARK   44  A    between atoms: _99  and  _101
REMARK   45  A    between atoms: _101  and  _102
REMARK   46  A    between atoms: _101  and  _104
REMARK   47  A    between atoms: _104  and  _105
REMARK   48  A    between atoms: _107  and  _109
REMARK   49  A    between atoms: _109  and  _110
REMARK   50  A    between atoms: _109  and  _112
REMARK   51  A    between atoms: _112  and  _113
REMARK   52  A    between atoms: _115  and  _117
REMARK   53  A    between atoms: _117  and  _118
REMARK   54  A    between atoms: _117  and  _120
REMARK   55  A    between atoms: _120  and  _121
REMARK   56  A    between atoms: _124  and  _126
REMARK   57  A    between atoms: _126  and  _127
REMARK   58  A    between atoms: _130  and  _132
REMARK   59  A    between atoms: _132  and  _133
REMARK   60  A    between atoms: _132  and  _135
REMARK   61  A    between atoms: _135  and  _136
REMARK   62  A    between atoms: _139  and  _141
REMARK   63  A    between atoms: _141  and  _142
REMARK   64  A    between atoms: _141  and  _144
REMARK   65  A    between atoms: _144  and  _145
REMARK   66  A    between atoms: _148  and  _150
REMARK   67  A    between atoms: _150  and  _151
REMARK   68  A    between atoms: _150  and  _153
REMARK   69  A    between atoms: _153  and  _154
REMARK   70  A    between atoms: _154  and  _155
REMARK   71  A    between atoms: _155  and  _156
REMARK   72  A    between atoms: _156  and  _157
REMARK   73  A    between atoms: _161  and  _163
REMARK   74  A    between atoms: _163  and  _164
REMARK   75  A    between atoms: _163  and  _166
REMARK   76  A    between atoms: _166  and  _167
REMARK   77  A    between atoms: _170  and  _172
REMARK   78  A    between atoms: _172  and  _173
REMARK   79  A    between atoms: _172  and  _175
REMARK   80  A    between atoms: _175  and  _176
REMARK   81  A    between atoms: _176  and  _177
REMARK   82  A    between atoms: _180  and  _182
REMARK   83  A    between atoms: _182  and  _183
REMARK   84  A    between atoms: _182  and  _185
REMARK   85  A    between atoms: _185  and  _186
REMARK   86  A    between atoms: _189  and  _191
REMARK   87  A    between atoms: _191  and  _192
REMARK   88  A    between atoms: _191  and  _194
REMARK   89  A    between atoms: _197  and  _199
REMARK   90  A    between atoms: _199  and  _200
REMARK   91  A    between atoms: _199  and  _202
REMARK   92  A    between atoms: _202  and  _203
REMARK   93  A    between atoms: _206  and  _208
REMARK   94  A    between atoms: _208  and  _209
REMARK   95  A    between atoms: _208  and  _211
REMARK   96  A    between atoms: _211  and  _212
REMARK   97  A    between atoms: _215  and  _217
REMARK   98  A    between atoms: _217  and  _218
REMARK   99  A    between atoms: _220  and  _222
REMARK  100  A    between atoms: _222  and  _223
REMARK  101  A    between atoms: _222  and  _225
REMARK  102  A    between atoms: _225  and  _226
REMARK  103  A    between atoms: _229  and  _231
REMARK  104  A    between atoms: _231  and  _232
REMARK  105  A    between atoms: _234  and  _236
REMARK  106  A    between atoms: _236  and  _237
REMARK  107  A    between atoms: _236  and  _239
REMARK  108  A    between atoms: _239  and  _240
REMARK  109  A    between atoms: _240  and  _241
REMARK  110  A    between atoms: _243  and  _245
REMARK  111  A    between atoms: _245  and  _246
REMARK  112  A    between atoms: _245  and  _248
REMARK  113  A    between atoms: _248  and  _249
REMARK  114  A    between atoms: _252  and  _254
REMARK  115  A    between atoms: _254  and  _255
REMARK  116  A    between atoms: _254  and  _257
REMARK  117  A    between atoms: _257  and  _258
REMARK  118  A    between atoms: _258  and  _259
REMARK  119  A    between atoms: _259  and  _260
REMARK  120  A    between atoms: _260  and  _261
REMARK  121  A    between atoms: _265  and  _267
REMARK  122  A    between atoms: _267  and  _268
REMARK  123  A    between atoms: _271  and  _273
REMARK  124  A    between atoms: _273  and  _274
REMARK  125  A    between atoms: _273  and  _276
REMARK  126  A    between atoms: _276  and  _277
REMARK  127  A    between atoms: _280  and  _282
REMARK  128  A    between atoms: _282  and  _283
REMARK  129  A    between atoms: _282  and  _285
REMARK  130  A    between atoms: _285  and  _286
REMARK  131  A    between atoms: _289  and  _291
REMARK  132  A    between atoms: _291  and  _292
REMARK  133  A    between atoms: _291  and  _294
REMARK  134  A    between atoms: _294  and  _295
REMARK  135  A    between atoms: _298  and  _300
REMARK  136  A    between atoms: _300  and  _301
REMARK  137  A    between atoms: _300  and  _303
REMARK  138  A    between atoms: _303  and  _304
REMARK  139  A    between atoms: _309  and  _311
REMARK  140  A    between atoms: _311  and  _312
REMARK  141  A    between atoms: _311  and  _314
REMARK  142  A    between atoms: _314  and  _315
REMARK  143  A    between atoms: _320  and  _322
REMARK  144  A    between atoms: _322  and  _323
REMARK  145  A    between atoms: _322  and  _325
REMARK  146  A    between atoms: _325  and  _326
REMARK  147  A    between atoms: _329  and  _331
REMARK  148  A    between atoms: _331  and  _332
REMARK  149  A    between atoms: _334  and  _336
REMARK  150  A    between atoms: _336  and  _337
REMARK  151  A    between atoms: _336  and  _339
REMARK  152  A    between atoms: _339  and  _340
REMARK  153  A    between atoms: _343  and  _345
REMARK  154  A    between atoms: _345  and  _346
REMARK  155  A    between atoms: _345  and  _348
REMARK  156  A    between atoms: _348  and  _349
REMARK  157  A    between atoms: _352  and  _354
REMARK  158  A    between atoms: _354  and  _355
REMARK  159  A    between atoms: _358  and  _360
REMARK  160  A    between atoms: _360  and  _361
REMARK  161  A    between atoms: _360  and  _363
REMARK  162  A    between atoms: _363  and  _364
REMARK  163  A    between atoms: _364  and  _365
REMARK  164  A    between atoms: _365  and  _366
REMARK  165  A    between atoms: _366  and  _367
REMARK  166  A    between atoms: _371  and  _373
REMARK  167  A    between atoms: _373  and  _374
REMARK  168  A    between atoms: _373  and  _376
REMARK  169  A    between atoms: _376  and  _377
REMARK  170  A    between atoms: _380  and  _382
REMARK  171  A    between atoms: _382  and  _383
REMARK  172  A    between atoms: _382  and  _385
REMARK  173  A    between atoms: _385  and  _386
REMARK  174  A    between atoms: _392  and  _394
REMARK  175  A    between atoms: _394  and  _395
REMARK  176  A    between atoms: _397  and  _399
REMARK  177  A    between atoms: _399  and  _400
REMARK  178  A    between atoms: _399  and  _402
REMARK  179  A    between atoms: _405  and  _407
REMARK  180  A    between atoms: _407  and  _408
REMARK  181  A    between atoms: _410  and  _412
REMARK  182  A    between atoms: _412  and  _413
REMARK  183  A    between atoms: _412  and  _415
REMARK  184  A    between atoms: _415  and  _416
REMARK  185  A    between atoms: _422  and  _424
REMARK  186  A    between atoms: _424  and  _425
REMARK  187  A    between atoms: _424  and  _427
REMARK  188  A    between atoms: _427  and  _428
REMARK  189  A    between atoms: _433  and  _434
REMARK  190  A    between atoms: _436  and  _438
REMARK  191  A    between atoms: _438  and  _439
REMARK  192  A    between atoms: _438  and  _441
REMARK  193  A    between atoms: _441  and  _442
REMARK  194  A    between atoms: _444  and  _446
REMARK  195  A    between atoms: _446  and  _447
REMARK  196  A    between atoms: _446  and  _449
REMARK  197  A    between atoms: _449  and  _450
REMARK  198  A    between atoms: _455  and  _456
REMARK  199  A    between atoms: _458  and  _460
REMARK  200  A    between atoms: _460  and  _461
REMARK  201  A    between atoms: _460  and  _463
REMARK  202  A    between atoms: _466  and  _468
REMARK  203  A    between atoms: _468  and  _469
REMARK  204  A    between atoms: _468  and  _471
REMARK  205  A    between atoms: _471  and  _472
REMARK  206  A    between atoms: _475  and  _477
REMARK  207  A    between atoms: _477  and  _478
REMARK  208  A    between atoms: _477  and  _480
REMARK  209  A    between atoms: _483  and  _485
REMARK  210  A    between atoms: _485  and  _486
REMARK  211  A    between atoms: _485  and  _488
REMARK  212  A    between atoms: _488  and  _489
REMARK  213  A    between atoms: _492  and  _494
REMARK  214  A    between atoms: _494  and  _495
REMARK  215  A    between atoms: _494  and  _497
REMARK  216  A    between atoms: _497  and  _498
REMARK  217  A    between atoms: _501  and  _503
REMARK  218  A    between atoms: _503  and  _504
REMARK  219  A    between atoms: _503  and  _506
REMARK  220  A    between atoms: _506  and  _507
REMARK  221  A    between atoms: _507  and  _508
REMARK  222  A    between atoms: _508  and  _509
REMARK  223  A    between atoms: _509  and  _510
REMARK  224  A    between atoms: _514  and  _516
REMARK  225  A    between atoms: _516  and  _517
REMARK  226  A    between atoms: _516  and  _519
REMARK  227  A    between atoms: _519  and  _520
REMARK  228  A    between atoms: _525  and  _527
REMARK  229  A    between atoms: _527  and  _528
REMARK  230  A    between atoms: _527  and  _530
REMARK  231  A    between atoms: _530  and  _531
REMARK  232  A    between atoms: _541  and  _543
REMARK  233  A    between atoms: _543  and  _544
REMARK  234  A    between atoms: _543  and  _546
REMARK  235  A    between atoms: _546  and  _547
REMARK  236  A    between atoms: _547  and  _548
REMARK  237  A    between atoms: _551  and  _553
REMARK  238  A    between atoms: _553  and  _554
REMARK  239  A    between atoms: _553  and  _556
REMARK  240  A    between atoms: _556  and  _557
REMARK  241  A    between atoms: _559  and  _561
REMARK  242  A    between atoms: _561  and  _562
REMARK  243  A    between atoms: _561  and  _564
REMARK  244  A    between atoms: _564  and  _565
REMARK  245  A    between atoms: _571  and  _573
REMARK  246  A    between atoms: _573  and  _574
REMARK  247  A    between atoms: _573  and  _576
REMARK  248  A    between atoms: _576  and  _577
REMARK  249  A    between atoms: _580  and  _582
REMARK  250  A    between atoms: _582  and  _583
REMARK  251  A    between atoms: _582  and  _585
REMARK  252  A    between atoms: _588  and  _590
REMARK  253  A    between atoms: _590  and  _591
REMARK  254  A    between atoms: _593  and  _595
REMARK  255  A    between atoms: _595  and  _596
REMARK  256  A    between atoms: _595  and  _598
REMARK  257  A    between atoms: _598  and  _599
REMARK  258  A    between atoms: _602  and  _604
REMARK  259  A    between atoms: _604  and  _605
REMARK  260  A    between atoms: _604  and  _607
REMARK  261  A    between atoms: _607  and  _608
REMARK  262  A    between atoms: _608  and  _609
REMARK  263  A    between atoms: _609  and  _610
REMARK  264  A    between atoms: _610  and  _611
REMARK  265  A    between atoms: _615  and  _617
REMARK  266  A    between atoms: _617  and  _618
REMARK  267  A    between atoms: _617  and  _620
REMARK                            x       y       z     vdW  Elec       q    Type
REMARK                         _______ _______ _______ _____ _____    ______ ____
ROOT
ATOM      1  CA  GLU A   1      14.381   0.504   3.242  0.00  0.00    +0.134 C 
ENDROOT
BRANCH   1   2
ATOM      2  N   GLU A   1      15.748   0.402   3.752  0.00  0.00    -0.239 NA
ATOM      3  H   GLU A   1      16.114   1.161   4.361  0.00  0.00    +0.142 HD
ENDBRANCH   1   2
BRANCH   1   4
ATOM      4  C   GLU A   1      14.354   0.636   1.731  0.00  0.00    +0.224 C 
ATOM      5  O   GLU A   1      13.457   0.088   1.106  0.00  0.00    -0.287 OA
ENDBRANCH   1   4
BRANCH   1   6
ATOM      6  CB  GLU A   1      13.636   1.659   3.926  0.00  0.00    +0.037 C 
BRANCH   6   7
ATOM      7  CG  GLU A   1      13.293   1.262   5.346  0.00  0.00    +0.116 C 
BRANCH   7   8
ATOM      8  CD  GLU A   1      12.431   2.202   6.151  0.00  0.00    +0.365 C 
ATOM      9  OE2 GLU A   1      12.415   2.025   7.385  0.00  0.00    -0.246 OA
ATOM     10  OE1 GLU A   1      11.767   3.092   5.575  0.00  0.00    -0.246 OA
ENDBRANCH   7   8
ENDBRANCH   6   7
ENDBRANCH   1   6
TORSDOF 5
REMARK  Name = ../refined-set-2016/4nh7/4nh7_pocket.pdb
REMARK  267 active torsions:
REMARK  status: ('A' for Active; 'I' for Inactive)
REMARK    1  A    between atoms: _1  and  _3
REMARK    2  A    between atoms: _3  and  _4
REMARK    3  A    between atoms: _3  and  _6
REMARK    4  A    between atoms: _6  and  _7
REMARK    5  A    between atoms: _13  and  _15
REMARK    6  A    between atoms: _15  and  _16
REMARK    7  A    between atoms: _15  and  _18
REMARK    8  A    between atoms: _18  and  _19
REMARK    9  A    between atoms: _19  and  _20
REMARK   10  A    between atoms: _25  and  _27
REMARK   11  A    between atoms: _27  and  _28
REMARK   12  A    between atoms: _27  and  _30
REMARK   13  A    between atoms: _30  and  _31
REMARK   14  A    between atoms: _34  and  _36
REMARK   15  A    between atoms: _36  and  _37
REMARK   16  A    between atoms: _36  and  _39
REMARK   17  A    between atoms: _39  and  _40
REMARK   18  A    between atoms: _43  and  _45
REMARK   19  A    between atoms: _45  and  _46
REMARK   20  A    between atoms: _45  and  _48
REMARK   21  A    between atoms: _48  and  _49
REMARK   22  A    between atoms: _49  and  _50
REMARK   23  A    between atoms: _52  and  _54
REMARK   24  A    between atoms: _54  and  _55
REMARK   25  A    between atoms: _54  and  _57
REMARK   26  A    between atoms: _57  and  _58
REMARK   27  A    between atoms: _58  and  _59
REMARK   28  A    between atoms: _62  and  _64
REMARK   29  A    between atoms: _64  and  _65
REMARK   30  A    between atoms: _64  and  _67
REMARK   31  A    between atoms: _67  and  _68
REMARK   32  A    between atoms: _71  and  _73
REMARK   33  A    between atoms: _73  and  _74
REMARK   34  A    between atoms: _73  and  _76
REMARK   35  A    between atoms: _76  and  _77
REMARK   36  A    between atoms: _80  and  _82
REMARK   37  A    between atoms: _82  and  _83
REMARK   38  A    between atoms: _82  and  _85
REMARK   39  A    between atoms: _85  and  _86
REMARK   40  A    between atoms: _88  and  _90
REMARK   41  A    between atoms: _90  and  _91
REMARK   42  A    between atoms: _90  and  _93
REMARK   43  A    between atoms: _93  and  _94
REMARK   44  A    between atoms: _99  and  _101
REMARK   45  A    between atoms: _101  and  _102
REMARK   46  A    between atoms: _101  and  _104
REMARK   47  A    between atoms: _104  and  _105
REMARK   48  A    between atoms: _107  and  _109
REMARK   49  A    between atoms: _109  and  _110
REMARK   50  A    between atoms: _109  and  _112
REMARK   51  A    between atoms: _112  and  _113
REMARK   52  A    between atoms: _115  and  _117
REMARK   53  A    between atoms: _117  and  _118
REMARK   54  A    between atoms: _117  and  _120
REMARK   55  A    between atoms: _120  and  _121
REMARK   56  A    between atoms: _124  and  _126
REMARK   57  A    between atoms: _126  and  _127
REMARK   58  A    between atoms: _130  and  _132
REMARK   59  A    between atoms: _132  and  _133
REMARK   60  A    between atoms: _132  and  _135
REMARK   61  A    between atoms: _135  and  _136
REMARK   62  A    between atoms: _139  and  _141
REMARK   63  A    between atoms: _141  and  _142
REMARK   64  A    between atoms: _141  and  _144
REMARK   65  A    between atoms: _144  and  _145
REMARK   66  A    between atoms: _148  and  _150
REMARK   67  A    between atoms: _150  and  _151
REMARK   68  A    between atoms: _150  and  _153
REMARK   69  A    between atoms: _153  and  _154
REMARK   70  A    between atoms: _154  and  _155
REMARK   71  A    between atoms: _155  and  _156
REMARK   72  A    between atoms: _156  and  _157
REMARK   73  A    between atoms: _161  and  _163
REMARK   74  A    between atoms: _163  and  _164
REMARK   75  A    between atoms: _163  and  _166
REMARK   76  A    between atoms: _166  and  _167
REMARK   77  A    between atoms: _170  and  _172
REMARK   78  A    between atoms: _172  and  _173
REMARK   79  A    between atoms: _172  and  _175
REMARK   80  A    between atoms: _175  and  _176
REMARK   81  A    between atoms: _176  and  _177
REMARK   82  A    between atoms: _180  and  _182
REMARK   83  A    between atoms: _182  and  _183
REMARK   84  A    between atoms: _182  and  _185
REMARK   85  A    between atoms: _185  and  _186
REMARK   86  A    between atoms: _189  and  _191
REMARK   87  A    between atoms: _191  and  _192
REMARK   88  A    between atoms: _191  and  _194
REMARK   89  A    between atoms: _197  and  _199
REMARK   90  A    between atoms: _199  and  _200
REMARK   91  A    between atoms: _199  and  _202
REMARK   92  A    between atoms: _202  and  _203
REMARK   93  A    between atoms: _206  and  _208
REMARK   94  A    between atoms: _208  and  _209
REMARK   95  A    between atoms: _208  and  _211
REMARK   96  A    between atoms: _211  and  _212
REMARK   97  A    between atoms: _215  and  _217
REMARK   98  A    between atoms: _217  and  _218
REMARK   99  A    between atoms: _220  and  _222
REMARK  100  A    between atoms: _222  and  _223
REMARK  101  A    between atoms: _222  and  _225
REMARK  102  A    between atoms: _225  and  _226
REMARK  103  A    between atoms: _229  and  _231
REMARK  104  A    between atoms: _231  and  _232
REMARK  105  A    between atoms: _234  and  _236
REMARK  106  A    between atoms: _236  and  _237
REMARK  107  A    between atoms: _236  and  _239
REMARK  108  A    between atoms: _239  and  _240
REMARK  109  A    between atoms: _240  and  _241
REMARK  110  A    between atoms: _243  and  _245
REMARK  111  A    between atoms: _245  and  _246
REMARK  112  A    between atoms: _245  and  _248
REMARK  113  A    between atoms: _248  and  _249
REMARK  114  A    between atoms: _252  and  _254
REMARK  115  A    between atoms: _254  and  _255
REMARK  116  A    between atoms: _254  and  _257
REMARK  117  A    between atoms: _257  and  _258
REMARK  118  A    between atoms: _258  and  _259
REMARK  119  A    between atoms: _259  and  _260
REMARK  120  A    between atoms: _260  and  _261
REMARK  121  A    between atoms: _265  and  _267
REMARK  122  A    between atoms: _267  and  _268
REMARK  123  A    between atoms: _271  and  _273
REMARK  124  A    between atoms: _273  and  _274
REMARK  125  A    between atoms: _273  and  _276
REMARK  126  A    between atoms: _276  and  _277
REMARK  127  A    between atoms: _280  and  _282
REMARK  128  A    between atoms: _282  and  _283
REMARK  129  A    between atoms: _282  and  _285
REMARK  130  A    between atoms: _285  and  _286
REMARK  131  A    between atoms: _289  and  _291
REMARK  132  A    between atoms: _291  and  _292
REMARK  133  A    between atoms: _291  and  _294
REMARK  134  A    between atoms: _294  and  _295
REMARK  135  A    between atoms: _298  and  _300
REMARK  136  A    between atoms: _300  and  _301
REMARK  137  A    between atoms: _300  and  _303
REMARK  138  A    between atoms: _303  and  _304
REMARK  139  A    between atoms: _309  and  _311
REMARK  140  A    between atoms: _311  and  _312
REMARK  141  A    between atoms: _311  and  _314
REMARK  142  A    between atoms: _314  and  _315
REMARK  143  A    between atoms: _320  and  _322
REMARK  144  A    between atoms: _322  and  _323
REMARK  145  A    between atoms: _322  and  _325
REMARK  146  A    between atoms: _325  and  _326
REMARK  147  A    between atoms: _329  and  _331
REMARK  148  A    between atoms: _331  and  _332
REMARK  149  A    between atoms: _334  and  _336
REMARK  150  A    between atoms: _336  and  _337
REMARK  151  A    between atoms: _336  and  _339
REMARK  152  A    between atoms: _339  and  _340
REMARK  153  A    between atoms: _343  and  _345
REMARK  154  A    between atoms: _345  and  _346
REMARK  155  A    between atoms: _345  and  _348
REMARK  156  A    between atoms: _348  and  _349
REMARK  157  A    between atoms: _352  and  _354
REMARK  158  A    between atoms: _354  and  _355
REMARK  159  A    between atoms: _358  and  _360
REMARK  160  A    between atoms: _360  and  _361
REMARK  161  A    between atoms: _360  and  _363
REMARK  162  A    between atoms: _363  and  _364
REMARK  163  A    between atoms: _364  and  _365
REMARK  164  A    between atoms: _365  and  _366
REMARK  165  A    between atoms: _366  and  _367
REMARK  166  A    between atoms: _371  and  _373
REMARK  167  A    between atoms: _373  and  _374
REMARK  168  A    between atoms: _373  and  _376
REMARK  169  A    between atoms: _376  and  _377
REMARK  170  A    between atoms: _380  and  _382
REMARK  171  A    between atoms: _382  and  _383
REMARK  172  A    between atoms: _382  and  _385
REMARK  173  A    between atoms: _385  and  _386
REMARK  174  A    between atoms: _392  and  _394
REMARK  175  A    between atoms: _394  and  _395
REMARK  176  A    between atoms: _397  and  _399
REMARK  177  A    between atoms: _399  and  _400
REMARK  178  A    between atoms: _399  and  _402
REMARK  179  A    between atoms: _405  and  _407
REMARK  180  A    between atoms: _407  and  _408
REMARK  181  A    between atoms: _410  and  _412
REMARK  182  A    between atoms: _412  and  _413
REMARK  183  A    between atoms: _412  and  _415
REMARK  184  A    between atoms: _415  and  _416
REMARK  185  A    between atoms: _422  and  _424
REMARK  186  A    between atoms: _424  and  _425
REMARK  187  A    between atoms: _424  and  _427
REMARK  188  A    between atoms: _427  and  _428
REMARK  189  A    between atoms: _433  and  _434
REMARK  190  A    between atoms: _436  and  _438
REMARK  191  A    between atoms: _438  and  _439
REMARK  192  A    between atoms: _438  and  _441
REMARK  193  A    between atoms: _441  and  _442
REMARK  194  A    between atoms: _444  and  _446
REMARK  195  A    between atoms: _446  and  _447
REMARK  196  A    between atoms: _446  and  _449
REMARK  197  A    between atoms: _449  and  _450
REMARK  198  A    between atoms: _455  and  _456
REMARK  199  A    between atoms: _458  and  _460
REMARK  200  A    between atoms: _460  and  _461
REMARK  201  A    between atoms: _460  and  _463
REMARK  202  A    between atoms: _466  and  _468
REMARK  203  A    between atoms: _468  and  _469
REMARK  204  A    between atoms: _468  and  _471
REMARK  205  A    between atoms: _471  and  _472
REMARK  206  A    between atoms: _475  and  _477
REMARK  207  A    between atoms: _477  and  _478
REMARK  208  A    between atoms: _477  and  _480
REMARK  209  A    between atoms: _483  and  _485
REMARK  210  A    between atoms: _485  and  _486
REMARK  211  A    between atoms: _485  and  _488
REMARK  212  A    between atoms: _488  and  _489
REMARK  213  A    between atoms: _492  and  _494
REMARK  214  A    between atoms: _494  and  _495
REMARK  215  A    between atoms: _494  and  _497
REMARK  216  A    between atoms: _497  and  _498
REMARK  217  A    between atoms: _501  and  _503
REMARK  218  A    between atoms: _503  and  _504
REMARK  219  A    between atoms: _503  and  _506
REMARK  220  A    between atoms: _506  and  _507
REMARK  221  A    between atoms: _507  and  _508
REMARK  222  A    between atoms: _508  and  _509
REMARK  223  A    between atoms: _509  and  _510
REMARK  224  A    between atoms: _514  and  _516
REMARK  225  A    between atoms: _516  and  _517
REMARK  226  A    between atoms: _516  and  _519
REMARK  227  A    between atoms: _519  and  _520
REMARK  228  A    between atoms: _525  and  _527
REMARK  229  A    between atoms: _527  and  _528
REMARK  230  A    between atoms: _527  and  _530
REMARK  231  A    between atoms: _530  and  _531
REMARK  232  A    between atoms: _541  and  _543
REMARK  233  A    between atoms: _543  and  _544
REMARK  234  A    between atoms: _543  and  _546
REMARK  235  A    between atoms: _546  and  _547
REMARK  236  A    between atoms: _547  and  _548
REMARK  237  A    between atoms: _551  and  _553
REMARK  238  A    between atoms: _553  and  _554
REMARK  239  A    between atoms: _553  and  _556
REMARK  240  A    between atoms: _556  and  _557
REMARK  241  A    between atoms: _559  and  _561
REMARK  242  A    between atoms: _561  and  _562
REMARK  243  A    between atoms: _561  and  _564
REMARK  244  A    between atoms: _564  and  _565
REMARK  245  A    between atoms: _571  and  _573
REMARK  246  A    between atoms: _573  and  _574
REMARK  247  A    between atoms: _573  and  _576
REMARK  248  A    between atoms: _576  and  _577
REMARK  249  A    between atoms: _580  and  _582
REMARK  250  A    between atoms: _582  and  _583
REMARK  251  A    between atoms: _582  and  _585
REMARK  252  A    between atoms: _588  and  _590
REMARK  253  A    between atoms: _590  and  _591
REMARK  254  A    between atoms: _593  and  _595
REMARK  255  A    between atoms: _595  and  _596
REMARK  256  A    between atoms: _595  and  _598
REMARK  257  A    between atoms: _598  and  _599
REMARK  258  A    between atoms: _602  and  _604
REMARK  259  A    between atoms: _604  and  _605
REMARK  260  A    between atoms: _604  and  _607
REMARK  261  A    between atoms: _607  and  _608
REMARK  262  A    between atoms: _608  and  _609
REMARK  263  A    between atoms: _609  and  _610
REMARK  264  A    between atoms: _610  and  _611
REMARK  265  A    between atoms: _615  and  _617
REMARK  266  A    between atoms: _617  and  _618
REMARK  267  A    between atoms: _617  and  _620
REMARK                            x       y       z     vdW  Elec       q    Type
REMARK                         _______ _______ _______ _____ _____    ______ ____
ROOT
ATOM      1  CA  ASP A  12       8.979  10.350  16.385  0.00  0.00    +0.160 C 
ENDROOT
BRANCH   1   4
ATOM      2  C   ALA A  11       6.550  10.875  16.744  0.00  0.00    +0.241 C 
ATOM      3  O   ALA A  11       6.606  10.630  17.958  0.00  0.00    -0.273 OA
ATOM      4  N   ASP A  12       7.621  10.771  15.917  0.00  0.00    -0.297 N 
ATOM      5  H   ASP A  12       7.492  10.995  14.910  0.00  0.00    +0.150 HD
BRANCH   2   6
ATOM      6  CA  ALA A  11       5.231  11.401  16.152  0.00  0.00    +0.149 C 
ATOM      7  CB  ALA A  11       4.303  10.272  15.750  0.00  0.00    +0.031 C 
BRANCH   6  10
ATOM      8  C   LYS A  10       6.105  13.579  15.205  0.00  0.00    +0.241 C 
ATOM      9  O   LYS A  10       6.623  13.934  16.264  0.00  0.00    -0.273 OA
ATOM     10  N   ALA A  11       5.438  12.372  15.037  0.00  0.00    -0.297 N 
ATOM     11  H   ALA A  11       5.067  12.135  14.095  0.00  0.00    +0.150 HD
BRANCH   8  12
ATOM     12  CA  LYS A  10       6.247  14.527  13.998  0.00  0.00    +0.149 C 
BRANCH  12  15
ATOM     13  C   THR A   9       7.919  13.051  12.923  0.00  0.00    +0.243 C 
ATOM     14  O   THR A   9       8.681  13.076  13.914  0.00  0.00    -0.273 OA
ATOM     15  N   LYS A  10       6.764  13.727  12.873  0.00  0.00    -0.297 N 
ATOM     16  H   LYS A  10       6.204  13.686  11.997  0.00  0.00    +0.150 HD
BRANCH  13  17
ATOM     17  CA  THR A   9       8.279  12.212  11.662  0.00  0.00    +0.176 C 
BRANCH  17  19
ATOM     18  C   MET A   8      10.716  12.473  11.529  0.00  0.00    +0.241 C 
ATOM     19  N   THR A   9       9.652  11.714  11.813  0.00  0.00    -0.295 N 
ATOM     20  H   THR A   9       9.802  10.742  12.151  0.00  0.00    +0.150 HD
ATOM     21  O   MET A   8      10.638  13.632  11.111  0.00  0.00    -0.273 OA
BRANCH  18  22
ATOM     22  CA  MET A   8      12.063  11.820  11.770  0.00  0.00    +0.149 C 
BRANCH  22  24
ATOM     23  C   GLY A   7      13.769  11.215  10.110  0.00  0.00    +0.243 C 
ATOM     24  N   MET A   8      13.062  12.157  10.729  0.00  0.00    -0.297 N 
ATOM     25  H   MET A   8      13.214  13.154  10.476  0.00  0.00    +0.150 HD
ATOM     26  O   GLY A   7      13.605  10.009  10.357  0.00  0.00    -0.273 OA
BRANCH  23  27
ATOM     27  CA  GLY A   7      14.779  11.673   9.070  0.00  0.00    +0.176 C 
BRANCH  27  29
ATOM     28  C   ILE A   6      14.855   9.699   7.592  0.00  0.00    +0.241 C 
ATOM     29  N   GLY A   7      15.471  10.517   8.474  0.00  0.00    -0.295 N 
ATOM     30  H   GLY A   7      16.458  10.326   8.739  0.00  0.00    +0.150 HD
ATOM     31  O   ILE A   6      13.706   9.880   7.172  0.00  0.00    -0.273 OA
BRANCH  28  32
ATOM     32  CA  ILE A   6      15.643   8.445   7.083  0.00  0.00    +0.149 C 
BRANCH  32  34
ATOM     33  C   GLY A   5      17.771   9.597   6.440  0.00  0.00    +0.243 C 
ATOM     34  N   ILE A   6      17.094   8.635   7.090  0.00  0.00    -0.297 N 
ATOM     35  H   ILE A   6      17.654   7.962   7.651  0.00  0.00    +0.150 HD
ATOM     36  O   GLY A   5      17.228  10.428   5.720  0.00  0.00    -0.273 OA
BRANCH  33  37
ATOM     37  CA  GLY A   5      19.285   9.594   6.621  0.00  0.00    +0.176 C 
BRANCH  37  39
ATOM     38  C   THR A   4      20.007  11.149   4.842  0.00  0.00    +0.243 C 
ATOM     39  N   GLY A   5      19.886  10.840   6.133  0.00  0.00    -0.295 N 
ATOM     40  H   GLY A   5      20.238  11.522   6.835  0.00  0.00    +0.150 HD
ATOM     41  O   THR A   4      19.590  10.418   3.944  0.00  0.00    -0.273 OA
BRANCH  38  42
ATOM     42  CA  THR A   4      20.639  12.528   4.537  0.00  0.00    +0.176 C 
BRANCH  42  45
ATOM     43  C   ASP A   3      21.605  13.778   6.436  0.00  0.00    +0.241 C 
ATOM     44  O   ASP A   3      20.659  14.570   6.518  0.00  0.00    -0.273 OA
ATOM     45  N   THR A   4      21.669  12.799   5.538  0.00  0.00    -0.295 N 
ATOM     46  H   THR A   4      22.508  12.185   5.549  0.00  0.00    +0.150 HD
BRANCH  43  47
ATOM     47  CA  ASP A   3      22.759  13.848   7.421  0.00  0.00    +0.160 C 
BRANCH  47  49
ATOM     48  C   VAL A   2      23.904  15.871   8.227  0.00  0.00    +0.241 C 
ATOM     49  N   ASP A   3      22.764  15.164   8.053  0.00  0.00    -0.297 N 
ATOM     50  H   ASP A   3      21.864  15.570   8.379  0.00  0.00    +0.150 HD
ATOM     51  O   VAL A   2      25.025  15.429   7.942  0.00  0.00    -0.273 OA
BRANCH  48  52
ATOM     52  CA  VAL A   2      23.756  17.290   8.768  0.00  0.00    +0.148 C 
BRANCH  52  55
ATOM     53  C   ILE A   1      24.487  17.625  11.113  0.00  0.00    +0.238 C 
ATOM     54  O   ILE A   1      23.348  17.537  11.517  0.00  0.00    -0.274 OA
ATOM     55  N   VAL A   2      24.792  17.523   9.807  0.00  0.00    -0.297 N 
ATOM     56  H   VAL A   2      25.786  17.610   9.515  0.00  0.00    +0.150 HD
BRANCH  53  57
ATOM     57  CA  ILE A   1      25.625  17.905  12.111  0.00  0.00    +0.145 C 
BRANCH  57  58
ATOM     58  CB  ILE A   1      25.838  16.849  13.225  0.00  0.00    +0.025 C 
ATOM     59  CG2 ILE A   1      26.027  15.405  12.603  0.00  0.00    +0.002 C 
BRANCH  58  60
ATOM     60  CG1 ILE A   1      27.101  17.251  14.024  0.00  0.00    +0.002 C 
ATOM     61  CD1 ILE A   1      27.111  17.064  15.398  0.00  0.00    +0.000 C 
ENDBRANCH  58  60
ENDBRANCH  57  58
BRANCH  57  62
ATOM     62  N   ILE A   1      25.426  19.291  12.603  0.00  0.00    -0.238 NA
ATOM     63  H   ILE A   1      24.641  19.459  13.264  0.00  0.00    +0.142 HD
ENDBRANCH  57  62
ENDBRANCH  53  57
ENDBRANCH  52  55
BRANCH  52  64
ATOM     64  CB  VAL A   2      23.838  18.372   7.602  0.00  0.00    +0.027 C 
ATOM     65  CG2 VAL A   2      23.707  19.789   8.149  0.00  0.00    +0.002 C 
ATOM     66  CG1 VAL A   2      22.796  18.169   6.493  0.00  0.00    +0.002 C 
ENDBRANCH  52  64
ENDBRANCH  48  52
ENDBRANCH  47  49
BRANCH  47  67
ATOM     67  CB  ASP A   3      22.795  12.670   8.422  0.00  0.00    +0.143 C 
BRANCH  67  68
ATOM     68  CG  ASP A   3      21.521  12.442   9.197  0.00  0.00    +0.367 C 
ATOM     69  OD2 ASP A   3      21.528  12.664  10.406  0.00  0.00    -0.246 OA
ATOM     70  OD1 ASP A   3      20.504  12.030   8.581  0.00  0.00    -0.246 OA
ENDBRANCH  67  68
ENDBRANCH  47  67
ENDBRANCH  43  47
ENDBRANCH  42  45
BRANCH  42  71
ATOM     71  CB  THR A   4      21.197  12.697   3.111  0.00  0.00    +0.137 C 
ATOM     72  CG2 THR A   4      21.501  14.175   2.755  0.00  0.00    +0.034 C 
BRANCH  71  73
ATOM     73  OG1 THR A   4      22.366  11.894   3.017  0.00  0.00    -0.382 OA
ATOM     74  HG1 THR A   4      22.752  11.980   2.109  0.00  0.00    +0.210 HD
ENDBRANCH  71  73
ENDBRANCH  42  71
ENDBRANCH  38  42
ENDBRANCH  37  39
ENDBRANCH  33  37
ENDBRANCH  32  34
BRANCH  32  75
ATOM     75  CB  ILE A   6      15.255   7.145   7.857  0.00  0.00    +0.027 C 
ATOM     76  CG2 ILE A   6      15.540   7.255   9.416  0.00  0.00    +0.002 C 
BRANCH  75  77
ATOM     77  CG1 ILE A   6      13.799   6.730   7.518  0.00  0.00    +0.002 C 
ATOM     78  CD1 ILE A   6      13.406   5.371   7.622  0.00  0.00    +0.000 C 
ENDBRANCH  75  77
ENDBRANCH  32  75
ENDBRANCH  28  32
ENDBRANCH  27  29
ENDBRANCH  23  27
ENDBRANCH  22  24
BRANCH  22  79
ATOM     79  CB  MET A   8      12.594  12.182  13.191  0.00  0.00    +0.041 C 
BRANCH  79  80
ATOM     80  CG  MET A   8      13.784  11.361  13.656  0.00  0.00    +0.060 C 
BRANCH  80  81
ATOM     81  SD  MET A   8      14.694  11.997  15.097  0.00  0.00    -0.139 S 
ATOM     82  CE  MET A   8      15.504  13.363  14.381  0.00  0.00    +0.069 C 
ENDBRANCH  80  81
ENDBRANCH  79  80
ENDBRANCH  22  79
ENDBRANCH  18  22
ENDBRANCH  17  19
BRANCH  17  83
ATOM     83  CB  THR A   9       7.281  11.052  11.546  0.00  0.00    +0.137 C 
ATOM     84  CG2 THR A   9       7.490  10.194  10.311  0.00  0.00    +0.034 C 
BRANCH  83  85
ATOM     85  OG1 THR A   9       7.288  10.289  12.763  0.00  0.00    -0.382 OA
ATOM     86  HG1 THR A   9       6.644   9.541  12.686  0.00  0.00    +0.210 HD
ENDBRANCH  83  85
ENDBRANCH  17  83
ENDBRANCH  13  17
ENDBRANCH  12  15
BRANCH  12  87
ATOM     87  CB  LYS A  10       4.857  15.127  13.669  0.00  0.00    +0.029 C 
BRANCH  87  88
ATOM     88  CG  LYS A  10       4.385  16.172  14.691  0.00  0.00    +0.000 C 
BRANCH  88  89
ATOM     89  CD  LYS A  10       3.002  16.702  14.352  0.00  0.00    -0.024 C 
BRANCH  89  90
ATOM     90  CE  LYS A  10       2.549  17.768  15.317  0.00  0.00    -0.086 C 
BRANCH  90  91
ATOM     91  NZ  LYS A  10       1.089  18.038  15.178  0.00  0.00    +0.380 N 
ATOM     92  HZ1 LYS A  10       0.808  18.776  15.855  0.00  0.00    -0.089 HD
ATOM     93  HZ2 LYS A  10       0.556  17.166  15.373  0.00  0.00    -0.089 HD
ATOM     94  HZ3 LYS A  10       0.888  18.360  14.210  0.00  0.00    -0.089 HD
ENDBRANCH  90  91
ENDBRANCH  89  90
ENDBRANCH  88  89
ENDBRANCH  87  88
ENDBRANCH  12  87
ENDBRANCH   8  12
ENDBRANCH   6  10
ENDBRANCH   2   6
ENDBRANCH   1   4
BRANCH   1  95
ATOM     95  C   ASP A  12       9.514  11.401  17.336  0.00  0.00    +0.241 C 
ATOM     96  O   ASP A  12      10.055  11.070  18.394  0.00  0.00    -0.273 OA
ATOM     97  N   LEU A  13       9.389  12.690  16.945  0.00  0.00    -0.297 N 
ATOM     98  H   LEU A  13       8.919  12.895  16.040  0.00  0.00    +0.150 HD
BRANCH  97  99
ATOM     99  CA  LEU A  13       9.888  13.805  17.745  0.00  0.00    +0.149 C 
BRANCH  99 100
ATOM    100  C   LEU A  13       9.133  14.036  19.053  0.00  0.00    +0.241 C 
ATOM    101  O   LEU A  13       9.766  14.293  20.094  0.00  0.00    -0.273 OA
ATOM    102  N   ILE A  14       7.795  13.933  19.002  0.00  0.00    -0.297 N 
ATOM    103  H   ILE A  14       7.332  13.660  18.111  0.00  0.00    +0.150 HD
BRANCH 102 104
ATOM    104  CA  ILE A  14       6.981  14.202  20.191  0.00  0.00    +0.149 C 
BRANCH 104 105
ATOM    105  C   ILE A  14       6.941  13.085  21.189  0.00  0.00    +0.241 C 
ATOM    106  O   ILE A  14       6.967  13.357  22.392  0.00  0.00    -0.273 OA
ATOM    107  N   ASN A  15       6.807  11.838  20.697  0.00  0.00    -0.297 N 
ATOM    108  H   ASN A  15       6.833  11.679  19.670  0.00  0.00    +0.150 HD
BRANCH 107 109
ATOM    109  CA  ASN A  15       6.628  10.726  21.593  0.00  0.00    +0.158 C 
BRANCH 109 110
ATOM    110  C   ASN A  15       7.290   9.380  21.310  0.00  0.00    +0.241 C 
ATOM    111  O   ASN A  15       7.645   8.703  22.280  0.00  0.00    -0.273 OA
ATOM    112  N   ASN A  16       7.420   8.962  20.034  0.00  0.00    -0.297 N 
ATOM    113  H   ASN A  16       7.221   9.620  19.254  0.00  0.00    +0.150 HD
BRANCH 112 114
ATOM    114  CA  ASN A  16       7.838   7.591  19.736  0.00  0.00    +0.158 C 
BRANCH 114 115
ATOM    115  C   ASN A  16       9.285   7.266  19.996  0.00  0.00    +0.241 C 
ATOM    116  O   ASN A  16       9.519   6.154  20.462  0.00  0.00    -0.273 OA
ATOM    117  N   LEU A  17      10.225   8.166  19.776  0.00  0.00    -0.297 N 
ATOM    118  H   LEU A  17       9.977   9.100  19.392  0.00  0.00    +0.150 HD
BRANCH 117 119
ATOM    119  CA  LEU A  17      11.625   7.836  20.078  0.00  0.00    +0.149 C 
BRANCH 119 120
ATOM    120  C   LEU A  17      11.867   7.825  21.599  0.00  0.00    +0.241 C 
ATOM    121  N   GLY A  18      11.217   8.769  22.316  0.00  0.00    -0.295 N 
ATOM    122  H   GLY A  18      10.651   9.461  21.785  0.00  0.00    +0.150 HD
ATOM    123  O   LEU A  17      12.577   6.935  22.077  0.00  0.00    -0.273 OA
BRANCH 121 124
ATOM    124  CA  GLY A  18      11.240   8.903  23.776  0.00  0.00    +0.176 C 
BRANCH 124 125
ATOM    125  C   GLY A  18      10.661   7.670  24.445  0.00  0.00    +0.243 C 
ATOM    126  O   GLY A  18      11.223   7.204  25.426  0.00  0.00    -0.273 OA
ATOM    127  N   THR A  19       9.568   7.096  23.891  0.00  0.00    -0.295 N 
ATOM    128  H   THR A  19       9.155   7.543  23.047  0.00  0.00    +0.150 HD
BRANCH 127 129
ATOM    129  CA  THR A  19       8.923   5.867  24.415  0.00  0.00    +0.176 C 
BRANCH 129 130
ATOM    130  C   THR A  19       9.914   4.678  24.439  0.00  0.00    +0.243 C 
ATOM    131  O   THR A  19      10.018   3.990  25.463  0.00  0.00    -0.273 OA
ATOM    132  N   ILE A  20      10.626   4.437  23.313  0.00  0.00    -0.297 N 
ATOM    133  H   ILE A  20      10.478   5.066  22.498  0.00  0.00    +0.150 HD
BRANCH 132 134
ATOM    134  CA  ILE A  20      11.597   3.338  23.171  0.00  0.00    +0.149 C 
BRANCH 134 135
ATOM    135  C   ILE A  20      12.787   3.577  24.092  0.00  0.00    +0.241 C 
ATOM    136  O   ILE A  20      13.275   2.629  24.715  0.00  0.00    -0.273 OA
ATOM    137  N   ALA A  21      13.220   4.853  24.201  0.00  0.00    -0.297 N 
ATOM    138  H   ALA A  21      12.702   5.578  23.664  0.00  0.00    +0.150 HD
BRANCH 137 139
ATOM    139  CA  ALA A  21      14.355   5.303  25.009  0.00  0.00    +0.149 C 
ATOM    140  CB  ALA A  21      14.706   6.731  24.621  0.00  0.00    +0.031 C 
BRANCH 139 141
ATOM    141  C   ALA A  21      14.160   5.241  26.524  0.00  0.00    +0.241 C 
ATOM    142  O   ALA A  21      15.152   5.335  27.253  0.00  0.00    -0.273 OA
ATOM    143  N   LYS A  22      12.908   5.143  26.995  0.00  0.00    -0.298 N 
ATOM    144  H   LYS A  22      12.140   5.063  26.299  0.00  0.00    +0.150 HD
BRANCH 143 145
ATOM    145  CA  LYS A  22      12.535   5.140  28.418  0.00  0.00    +0.137 C 
BRANCH 145 146
ATOM    146  C   LYS A  22      13.351   4.169  29.275  0.00  0.00    +0.227 C 
ATOM    147  O   LYS A  22      14.001   4.638  30.216  0.00  0.00    -0.286 OA
ENDBRANCH 145 146
BRANCH 145 148
ATOM    148  CB  LYS A  22      11.022   4.908  28.597  0.00  0.00    +0.028 C 
BRANCH 148 149
ATOM    149  CG  LYS A  22      10.496   5.423  29.941  0.00  0.00    -0.000 C 
BRANCH 149 150
ATOM    150  CD  LYS A  22       9.017   5.161  30.057  0.00  0.00    -0.024 C 
BRANCH 150 151
ATOM    151  CE  LYS A  22       8.501   5.521  31.417  0.00  0.00    -0.086 C 
BRANCH 151 152
ATOM    152  NZ  LYS A  22       7.023   5.388  31.502  0.00  0.00    +0.380 N 
ATOM    153  HZ1 LYS A  22       6.707   5.646  32.459  0.00  0.00    -0.089 HD
ATOM    154  HZ2 LYS A  22       6.752   4.404  31.300  0.00  0.00    -0.089 HD
ATOM    155  HZ3 LYS A  22       6.579   6.021  30.806  0.00  0.00    -0.089 HD
ENDBRANCH 151 152
ENDBRANCH 150 151
ENDBRANCH 149 150
ENDBRANCH 148 149
ENDBRANCH 145 148
ENDBRANCH 143 145
ENDBRANCH 139 141
ENDBRANCH 137 139
ENDBRANCH 134 135
BRANCH 134 156
ATOM    156  CB  ILE A  20      11.964   3.132  21.658  0.00  0.00    +0.027 C 
ATOM    157  CG2 ILE A  20      13.091   2.100  21.410  0.00  0.00    +0.002 C 
BRANCH 156 158
ATOM    158  CG1 ILE A  20      10.698   2.819  20.780  0.00  0.00    +0.002 C 
ATOM    159  CD1 ILE A  20       9.781   1.519  21.183  0.00  0.00    +0.000 C 
ENDBRANCH 156 158
ENDBRANCH 134 156
ENDBRANCH 132 134
ENDBRANCH 129 130
BRANCH 129 160
ATOM    160  CB  THR A  19       7.635   5.562  23.621  0.00  0.00    +0.137 C 
ATOM    161  CG2 THR A  19       6.947   4.238  24.040  0.00  0.00    +0.034 C 
BRANCH 160 162
ATOM    162  OG1 THR A  19       6.742   6.656  23.789  0.00  0.00    -0.382 OA
ATOM    163  HG1 THR A  19       5.908   6.480  23.286  0.00  0.00    +0.210 HD
ENDBRANCH 160 162
ENDBRANCH 129 160
ENDBRANCH 127 129
ENDBRANCH 124 125
ENDBRANCH 121 124
ENDBRANCH 119 120
BRANCH 119 164
ATOM    164  CB  LEU A  17      12.596   8.711  19.304  0.00  0.00    +0.029 C 
BRANCH 164 165
ATOM    165  CG  LEU A  17      12.555   8.504  17.763  0.00  0.00    +0.002 C 
ATOM    166  CD2 LEU A  17      12.927   7.069  17.349  0.00  0.00    +0.000 C 
ATOM    167  CD1 LEU A  17      13.390   9.539  17.061  0.00  0.00    +0.000 C 
ENDBRANCH 164 165
ENDBRANCH 119 164
ENDBRANCH 117 119
ENDBRANCH 114 115
BRANCH 114 168
ATOM    168  CB  ASN A  16       7.434   7.198  18.328  0.00  0.00    +0.114 C 
BRANCH 168 169
ATOM    169  CG  ASN A  16       5.901   7.180  18.135  0.00  0.00    +0.222 C 
ATOM    170  ND2 ASN A  16       5.102   7.236  19.201  0.00  0.00    -0.329 N 
ATOM    171 HD21 ASN A  16       5.511   7.290  20.155  0.00  0.00    +0.145 HD
ATOM    172 HD22 ASN A  16       4.069   7.226  19.078  0.00  0.00    +0.145 HD
ATOM    173  OD1 ASN A  16       5.397   7.117  17.023  0.00  0.00    -0.275 OA
ENDBRANCH 168 169
ENDBRANCH 114 168
ENDBRANCH 112 114
ENDBRANCH 109 110
BRANCH 109 174
ATOM    174  CB  ASN A  15       5.089  10.488  21.560  0.00  0.00    +0.114 C 
BRANCH 174 175
ATOM    175  CG  ASN A  15       4.469   9.688  22.692  0.00  0.00    +0.222 C 
ATOM    176  ND2 ASN A  15       5.056   9.707  23.889  0.00  0.00    -0.329 N 
ATOM    177 HD21 ASN A  15       4.639   9.178  24.681  0.00  0.00    +0.145 HD
ATOM    178 HD22 ASN A  15       5.931  10.251  24.031  0.00  0.00    +0.145 HD
ATOM    179  OD1 ASN A  15       3.431   9.048  22.506  0.00  0.00    -0.275 OA
ENDBRANCH 174 175
ENDBRANCH 109 174
ENDBRANCH 107 109
ENDBRANCH 104 105
BRANCH 104 180
ATOM    180  CB  ILE A  14       5.526  14.602  19.768  0.00  0.00    +0.027 C 
ATOM    181  CG2 ILE A  14       4.483  14.571  20.973  0.00  0.00    +0.002 C 
BRANCH 180 182
ATOM    182  CG1 ILE A  14       5.536  15.965  19.075  0.00  0.00    +0.002 C 
ATOM    183  CD1 ILE A  14       4.221  16.217  18.298  0.00  0.00    +0.000 C 
ENDBRANCH 180 182
ENDBRANCH 104 180
ENDBRANCH 102 104
ENDBRANCH  99 100
BRANCH  99 184
ATOM    184  CB  LEU A  13       9.862  15.088  16.914  0.00  0.00    +0.029 C 
BRANCH 184 185
ATOM    185  CG  LEU A  13      10.745  15.187  15.687  0.00  0.00    +0.002 C 
ATOM    186  CD2 LEU A  13      12.242  15.226  16.066  0.00  0.00    +0.000 C 
ATOM    187  CD1 LEU A  13      10.370  16.441  14.897  0.00  0.00    +0.000 C 
ENDBRANCH 184 185
ENDBRANCH  99 184
ENDBRANCH  97  99
ENDBRANCH   1  95
BRANCH   1 188
ATOM    188  CB  ASP A  12       9.993  10.280  15.207  0.00  0.00    +0.143 C 
BRANCH 188 189
ATOM    189  CG  ASP A  12       9.920   9.060  14.308  0.00  0.00    +0.367 C 
ATOM    190  OD2 ASP A  12       9.426   8.014  14.765  0.00  0.00    -0.246 OA
ATOM    191  OD1 ASP A  12      10.309   9.172  13.130  0.00  0.00    -0.246 OA
ENDBRANCH 188 189
ENDBRANCH   1 188
TORSDOF 84
REMARK  Name = ../refined-set-2016/4nh7/4nh7_pocket.pdb
REMARK  267 active torsions:
REMARK  status: ('A' for Active; 'I' for Inactive)
REMARK    1  A    between atoms: _1  and  _3
REMARK    2  A    between atoms: _3  and  _4
REMARK    3  A    between atoms: _3  and  _6
REMARK    4  A    between atoms: _6  and  _7
REMARK    5  A    between atoms: _13  and  _15
REMARK    6  A    between atoms: _15  and  _16
REMARK    7  A    between atoms: _15  and  _18
REMARK    8  A    between atoms: _18  and  _19
REMARK    9  A    between atoms: _19  and  _20
REMARK   10  A    between atoms: _25  and  _27
REMARK   11  A    between atoms: _27  and  _28
REMARK   12  A    between atoms: _27  and  _30
REMARK   13  A    between atoms: _30  and  _31
REMARK   14  A    between atoms: _34  and  _36
REMARK   15  A    between atoms: _36  and  _37
REMARK   16  A    between atoms: _36  and  _39
REMARK   17  A    between atoms: _39  and  _40
REMARK   18  A    between atoms: _43  and  _45
REMARK   19  A    between atoms: _45  and  _46
REMARK   20  A    between atoms: _45  and  _48
REMARK   21  A    between atoms: _48  and  _49
REMARK   22  A    between atoms: _49  and  _50
REMARK   23  A    between atoms: _52  and  _54
REMARK   24  A    between atoms: _54  and  _55
REMARK   25  A    between atoms: _54  and  _57
REMARK   26  A    between atoms: _57  and  _58
REMARK   27  A    between atoms: _58  and  _59
REMARK   28  A    between atoms: _62  and  _64
REMARK   29  A    between atoms: _64  and  _65
REMARK   30  A    between atoms: _64  and  _67
REMARK   31  A    between atoms: _67  and  _68
REMARK   32  A    between atoms: _71  and  _73
REMARK   33  A    between atoms: _73  and  _74
REMARK   34  A    between atoms: _73  and  _76
REMARK   35  A    between atoms: _76  and  _77
REMARK   36  A    between atoms: _80  and  _82
REMARK   37  A    between atoms: _82  and  _83
REMARK   38  A    between atoms: _82  and  _85
REMARK   39  A    between atoms: _85  and  _86
REMARK   40  A    between atoms: _88  and  _90
REMARK   41  A    between atoms: _90  and  _91
REMARK   42  A    between atoms: _90  and  _93
REMARK   43  A    between atoms: _93  and  _94
REMARK   44  A    between atoms: _99  and  _101
REMARK   45  A    between atoms: _101  and  _102
REMARK   46  A    between atoms: _101  and  _104
REMARK   47  A    between atoms: _104  and  _105
REMARK   48  A    between atoms: _107  and  _109
REMARK   49  A    between atoms: _109  and  _110
REMARK   50  A    between atoms: _109  and  _112
REMARK   51  A    between atoms: _112  and  _113
REMARK   52  A    between atoms: _115  and  _117
REMARK   53  A    between atoms: _117  and  _118
REMARK   54  A    between atoms: _117  and  _120
REMARK   55  A    between atoms: _120  and  _121
REMARK   56  A    between atoms: _124  and  _126
REMARK   57  A    between atoms: _126  and  _127
REMARK   58  A    between atoms: _130  and  _132
REMARK   59  A    between atoms: _132  and  _133
REMARK   60  A    between atoms: _132  and  _135
REMARK   61  A    between atoms: _135  and  _136
REMARK   62  A    between atoms: _139  and  _141
REMARK   63  A    between atoms: _141  and  _142
REMARK   64  A    between atoms: _141  and  _144
REMARK   65  A    between atoms: _144  and  _145
REMARK   66  A    between atoms: _148  and  _150
REMARK   67  A    between atoms: _150  and  _151
REMARK   68  A    between atoms: _150  and  _153
REMARK   69  A    between atoms: _153  and  _154
REMARK   70  A    between atoms: _154  and  _155
REMARK   71  A    between atoms: _155  and  _156
REMARK   72  A    between atoms: _156  and  _157
REMARK   73  A    between atoms: _161  and  _163
REMARK   74  A    between atoms: _163  and  _164
REMARK   75  A    between atoms: _163  and  _166
REMARK   76  A    between atoms: _166  and  _167
REMARK   77  A    between atoms: _170  and  _172
REMARK   78  A    between atoms: _172  and  _173
REMARK   79  A    between atoms: _172  and  _175
REMARK   80  A    between atoms: _175  and  _176
REMARK   81  A    between atoms: _176  and  _177
REMARK   82  A    between atoms: _180  and  _182
REMARK   83  A    between atoms: _182  and  _183
REMARK   84  A    between atoms: _182  and  _185
REMARK   85  A    between atoms: _185  and  _186
REMARK   86  A    between atoms: _189  and  _191
REMARK   87  A    between atoms: _191  and  _192
REMARK   88  A    between atoms: _191  and  _194
REMARK   89  A    between atoms: _197  and  _199
REMARK   90  A    between atoms: _199  and  _200
REMARK   91  A    between atoms: _199  and  _202
REMARK   92  A    between atoms: _202  and  _203
REMARK   93  A    between atoms: _206  and  _208
REMARK   94  A    between atoms: _208  and  _209
REMARK   95  A    between atoms: _208  and  _211
REMARK   96  A    between atoms: _211  and  _212
REMARK   97  A    between atoms: _215  and  _217
REMARK   98  A    between atoms: _217  and  _218
REMARK   99  A    between atoms: _220  and  _222
REMARK  100  A    between atoms: _222  and  _223
REMARK  101  A    between atoms: _222  and  _225
REMARK  102  A    between atoms: _225  and  _226
REMARK  103  A    between atoms: _229  and  _231
REMARK  104  A    between atoms: _231  and  _232
REMARK  105  A    between atoms: _234  and  _236
REMARK  106  A    between atoms: _236  and  _237
REMARK  107  A    between atoms: _236  and  _239
REMARK  108  A    between atoms: _239  and  _240
REMARK  109  A    between atoms: _240  and  _241
REMARK  110  A    between atoms: _243  and  _245
REMARK  111  A    between atoms: _245  and  _246
REMARK  112  A    between atoms: _245  and  _248
REMARK  113  A    between atoms: _248  and  _249
REMARK  114  A    between atoms: _252  and  _254
REMARK  115  A    between atoms: _254  and  _255
REMARK  116  A    between atoms: _254  and  _257
REMARK  117  A    between atoms: _257  and  _258
REMARK  118  A    between atoms: _258  and  _259
REMARK  119  A    between atoms: _259  and  _260
REMARK  120  A    between atoms: _260  and  _261
REMARK  121  A    between atoms: _265  and  _267
REMARK  122  A    between atoms: _267  and  _268
REMARK  123  A    between atoms: _271  and  _273
REMARK  124  A    between atoms: _273  and  _274
REMARK  125  A    between atoms: _273  and  _276
REMARK  126  A    between atoms: _276  and  _277
REMARK  127  A    between atoms: _280  and  _282
REMARK  128  A    between atoms: _282  and  _283
REMARK  129  A    between atoms: _282  and  _285
REMARK  130  A    between atoms: _285  and  _286
REMARK  131  A    between atoms: _289  and  _291
REMARK  132  A    between atoms: _291  and  _292
REMARK  133  A    between atoms: _291  and  _294
REMARK  134  A    between atoms: _294  and  _295
REMARK  135  A    between atoms: _298  and  _300
REMARK  136  A    between atoms: _300  and  _301
REMARK  137  A    between atoms: _300  and  _303
REMARK  138  A    between atoms: _303  and  _304
REMARK  139  A    between atoms: _309  and  _311
REMARK  140  A    between atoms: _311  and  _312
REMARK  141  A    between atoms: _311  and  _314
REMARK  142  A    between atoms: _314  and  _315
REMARK  143  A    between atoms: _320  and  _322
REMARK  144  A    between atoms: _322  and  _323
REMARK  145  A    between atoms: _322  and  _325
REMARK  146  A    between atoms: _325  and  _326
REMARK  147  A    between atoms: _329  and  _331
REMARK  148  A    between atoms: _331  and  _332
REMARK  149  A    between atoms: _334  and  _336
REMARK  150  A    between atoms: _336  and  _337
REMARK  151  A    between atoms: _336  and  _339
REMARK  152  A    between atoms: _339  and  _340
REMARK  153  A    between atoms: _343  and  _345
REMARK  154  A    between atoms: _345  and  _346
REMARK  155  A    between atoms: _345  and  _348
REMARK  156  A    between atoms: _348  and  _349
REMARK  157  A    between atoms: _352  and  _354
REMARK  158  A    between atoms: _354  and  _355
REMARK  159  A    between atoms: _358  and  _360
REMARK  160  A    between atoms: _360  and  _361
REMARK  161  A    between atoms: _360  and  _363
REMARK  162  A    between atoms: _363  and  _364
REMARK  163  A    between atoms: _364  and  _365
REMARK  164  A    between atoms: _365  and  _366
REMARK  165  A    between atoms: _366  and  _367
REMARK  166  A    between atoms: _371  and  _373
REMARK  167  A    between atoms: _373  and  _374
REMARK  168  A    between atoms: _373  and  _376
REMARK  169  A    between atoms: _376  and  _377
REMARK  170  A    between atoms: _380  and  _382
REMARK  171  A    between atoms: _382  and  _383
REMARK  172  A    between atoms: _382  and  _385
REMARK  173  A    between atoms: _385  and  _386
REMARK  174  A    between atoms: _392  and  _394
REMARK  175  A    between atoms: _394  and  _395
REMARK  176  A    between atoms: _397  and  _399
REMARK  177  A    between atoms: _399  and  _400
REMARK  178  A    between atoms: _399  and  _402
REMARK  179  A    between atoms: _405  and  _407
REMARK  180  A    between atoms: _407  and  _408
REMARK  181  A    between atoms: _410  and  _412
REMARK  182  A    between atoms: _412  and  _413
REMARK  183  A    between atoms: _412  and  _415
REMARK  184  A    between atoms: _415  and  _416
REMARK  185  A    between atoms: _422  and  _424
REMARK  186  A    between atoms: _424  and  _425
REMARK  187  A    between atoms: _424  and  _427
REMARK  188  A    between atoms: _427  and  _428
REMARK  189  A    between atoms: _433  and  _434
REMARK  190  A    between atoms: _436  and  _438
REMARK  191  A    between atoms: _438  and  _439
REMARK  192  A    between atoms: _438  and  _441
REMARK  193  A    between atoms: _441  and  _442
REMARK  194  A    between atoms: _444  and  _446
REMARK  195  A    between atoms: _446  and  _447
REMARK  196  A    between atoms: _446  and  _449
REMARK  197  A    between atoms: _449  and  _450
REMARK  198  A    between atoms: _455  and  _456
REMARK  199  A    between atoms: _458  and  _460
REMARK  200  A    between atoms: _460  and  _461
REMARK  201  A    between atoms: _460  and  _463
REMARK  202  A    between atoms: _466  and  _468
REMARK  203  A    between atoms: _468  and  _469
REMARK  204  A    between atoms: _468  and  _471
REMARK  205  A    between atoms: _471  and  _472
REMARK  206  A    between atoms: _475  and  _477
REMARK  207  A    between atoms: _477  and  _478
REMARK  208  A    between atoms: _477  and  _480
REMARK  209  A    between atoms: _483  and  _485
REMARK  210  A    between atoms: _485  and  _486
REMARK  211  A    between atoms: _485  and  _488
REMARK  212  A    between atoms: _488  and  _489
REMARK  213  A    between atoms: _492  and  _494
REMARK  214  A    between atoms: _494  and  _495
REMARK  215  A    between atoms: _494  and  _497
REMARK  216  A    between atoms: _497  and  _498
REMARK  217  A    between atoms: _501  and  _503
REMARK  218  A    between atoms: _503  and  _504
REMARK  219  A    between atoms: _503  and  _506
REMARK  220  A    between atoms: _506  and  _507
REMARK  221  A    between atoms: _507  and  _508
REMARK  222  A    between atoms: _508  and  _509
REMARK  223  A    between atoms: _509  and  _510
REMARK  224  A    between atoms: _514  and  _516
REMARK  225  A    between atoms: _516  and  _517
REMARK  226  A    between atoms: _516  and  _519
REMARK  227  A    between atoms: _519  and  _520
REMARK  228  A    between atoms: _525  and  _527
REMARK  229  A    between atoms: _527  and  _528
REMARK  230  A    between atoms: _527  and  _530
REMARK  231  A    between atoms: _530  and  _531
REMARK  232  A    between atoms: _541  and  _543
REMARK  233  A    between atoms: _543  and  _544
REMARK  234  A    between atoms: _543  and  _546
REMARK  235  A    between atoms: _546  and  _547
REMARK  236  A    between atoms: _547  and  _548
REMARK  237  A    between atoms: _551  and  _553
REMARK  238  A    between atoms: _553  and  _554
REMARK  239  A    between atoms: _553  and  _556
REMARK  240  A    between atoms: _556  and  _557
REMARK  241  A    between atoms: _559  and  _561
REMARK  242  A    between atoms: _561  and  _562
REMARK  243  A    between atoms: _561  and  _564
REMARK  244  A    between atoms: _564  and  _565
REMARK  245  A    between atoms: _571  and  _573
REMARK  246  A    between atoms: _573  and  _574
REMARK  247  A    between atoms: _573  and  _576
REMARK  248  A    between atoms: _576  and  _577
REMARK  249  A    between atoms: _580  and  _582
REMARK  250  A    between atoms: _582  and  _583
REMARK  251  A    between atoms: _582  and  _585
REMARK  252  A    between atoms: _588  and  _590
REMARK  253  A    between atoms: _590  and  _591
REMARK  254  A    between atoms: _593  and  _595
REMARK  255  A    between atoms: _595  and  _596
REMARK  256  A    between atoms: _595  and  _598
REMARK  257  A    between atoms: _598  and  _599
REMARK  258  A    between atoms: _602  and  _604
REMARK  259  A    between atoms: _604  and  _605
REMARK  260  A    between atoms: _604  and  _607
REMARK  261  A    between atoms: _607  and  _608
REMARK  262  A    between atoms: _608  and  _609
REMARK  263  A    between atoms: _609  and  _610
REMARK  264  A    between atoms: _610  and  _611
REMARK  265  A    between atoms: _615  and  _617
REMARK  266  A    between atoms: _617  and  _618
REMARK  267  A    between atoms: _617  and  _620
REMARK                            x       y       z     vdW  Elec       q    Type
REMARK                         _______ _______ _______ _____ _____    ______ ____
ROOT
ATOM      1  CA  THR A   1      17.487   6.188  29.944  0.00  0.00    +0.160 C 
ENDROOT
BRANCH   1   2
ATOM      2  N   THR A   1      17.184   4.992  29.133  0.00  0.00    -0.237 NA
ATOM      3  H   THR A   1      16.323   4.989  28.550  0.00  0.00    +0.142 HD
ENDBRANCH   1   2
BRANCH   1   4
ATOM      4  C   THR A   1      17.615   5.822  31.466  0.00  0.00    +0.227 C 
ATOM      5  O   THR A   1      18.591   6.219  32.114  0.00  0.00    -0.287 OA
ENDBRANCH   1   4
BRANCH   1   6
ATOM      6  CB  THR A   1      16.399   7.250  29.736  0.00  0.00    +0.134 C 
ATOM      7  CG2 THR A   1      16.673   8.483  30.546  0.00  0.00    +0.034 C 
BRANCH   6   8
ATOM      8  OG1 THR A   1      16.371   7.583  28.354  0.00  0.00    -0.383 OA
ATOM      9  HG1 THR A   1      16.165   6.772  27.825  0.00  0.00    +0.210 HD
ENDBRANCH   6   8
ENDBRANCH   1   6
TORSDOF 4
REMARK  Name = ../refined-set-2016/4nh7/4nh7_pocket.pdb
REMARK  267 active torsions:
REMARK  status: ('A' for Active; 'I' for Inactive)
REMARK    1  A    between atoms: _1  and  _3
REMARK    2  A    between atoms: _3  and  _4
REMARK    3  A    between atoms: _3  and  _6
REMARK    4  A    between atoms: _6  and  _7
REMARK    5  A    between atoms: _13  and  _15
REMARK    6  A    between atoms: _15  and  _16
REMARK    7  A    between atoms: _15  and  _18
REMARK    8  A    between atoms: _18  and  _19
REMARK    9  A    between atoms: _19  and  _20
REMARK   10  A    between atoms: _25  and  _27
REMARK   11  A    between atoms: _27  and  _28
REMARK   12  A    between atoms: _27  and  _30
REMARK   13  A    between atoms: _30  and  _31
REMARK   14  A    between atoms: _34  and  _36
REMARK   15  A    between atoms: _36  and  _37
REMARK   16  A    between atoms: _36  and  _39
REMARK   17  A    between atoms: _39  and  _40
REMARK   18  A    between atoms: _43  and  _45
REMARK   19  A    between atoms: _45  and  _46
REMARK   20  A    between atoms: _45  and  _48
REMARK   21  A    between atoms: _48  and  _49
REMARK   22  A    between atoms: _49  and  _50
REMARK   23  A    between atoms: _52  and  _54
REMARK   24  A    between atoms: _54  and  _55
REMARK   25  A    between atoms: _54  and  _57
REMARK   26  A    between atoms: _57  and  _58
REMARK   27  A    between atoms: _58  and  _59
REMARK   28  A    between atoms: _62  and  _64
REMARK   29  A    between atoms: _64  and  _65
REMARK   30  A    between atoms: _64  and  _67
REMARK   31  A    between atoms: _67  and  _68
REMARK   32  A    between atoms: _71  and  _73
REMARK   33  A    between atoms: _73  and  _74
REMARK   34  A    between atoms: _73  and  _76
REMARK   35  A    between atoms: _76  and  _77
REMARK   36  A    between atoms: _80  and  _82
REMARK   37  A    between atoms: _82  and  _83
REMARK   38  A    between atoms: _82  and  _85
REMARK   39  A    between atoms: _85  and  _86
REMARK   40  A    between atoms: _88  and  _90
REMARK   41  A    between atoms: _90  and  _91
REMARK   42  A    between atoms: _90  and  _93
REMARK   43  A    between atoms: _93  and  _94
REMARK   44  A    between atoms: _99  and  _101
REMARK   45  A    between atoms: _101  and  _102
REMARK   46  A    between atoms: _101  and  _104
REMARK   47  A    between atoms: _104  and  _105
REMARK   48  A    between atoms: _107  and  _109
REMARK   49  A    between atoms: _109  and  _110
REMARK   50  A    between atoms: _109  and  _112
REMARK   51  A    between atoms: _112  and  _113
REMARK   52  A    between atoms: _115  and  _117
REMARK   53  A    between atoms: _117  and  _118
REMARK   54  A    between atoms: _117  and  _120
REMARK   55  A    between atoms: _120  and  _121
REMARK   56  A    between atoms: _124  and  _126
REMARK   57  A    between atoms: _126  and  _127
REMARK   58  A    between atoms: _130  and  _132
REMARK   59  A    between atoms: _132  and  _133
REMARK   60  A    between atoms: _132  and  _135
REMARK   61  A    between atoms: _135  and  _136
REMARK   62  A    between atoms: _139  and  _141
REMARK   63  A    between atoms: _141  and  _142
REMARK   64  A    between atoms: _141  and  _144
REMARK   65  A    between atoms: _144  and  _145
REMARK   66  A    between atoms: _148  and  _150
REMARK   67  A    between atoms: _150  and  _151
REMARK   68  A    between atoms: _150  and  _153
REMARK   69  A    between atoms: _153  and  _154
REMARK   70  A    between atoms: _154  and  _155
REMARK   71  A    between atoms: _155  and  _156
REMARK   72  A    between atoms: _156  and  _157
REMARK   73  A    between atoms: _161  and  _163
REMARK   74  A    between atoms: _163  and  _164
REMARK   75  A    between atoms: _163  and  _166
REMARK   76  A    between atoms: _166  and  _167
REMARK   77  A    between atoms: _170  and  _172
REMARK   78  A    between atoms: _172  and  _173
REMARK   79  A    between atoms: _172  and  _175
REMARK   80  A    between atoms: _175  and  _176
REMARK   81  A    between atoms: _176  and  _177
REMARK   82  A    between atoms: _180  and  _182
REMARK   83  A    between atoms: _182  and  _183
REMARK   84  A    between atoms: _182  and  _185
REMARK   85  A    between atoms: _185  and  _186
REMARK   86  A    between atoms: _189  and  _191
REMARK   87  A    between atoms: _191  and  _192
REMARK   88  A    between atoms: _191  and  _194
REMARK   89  A    between atoms: _197  and  _199
REMARK   90  A    between atoms: _199  and  _200
REMARK   91  A    between atoms: _199  and  _202
REMARK   92  A    between atoms: _202  and  _203
REMARK   93  A    between atoms: _206  and  _208
REMARK   94  A    between atoms: _208  and  _209
REMARK   95  A    between atoms: _208  and  _211
REMARK   96  A    between atoms: _211  and  _212
REMARK   97  A    between atoms: _215  and  _217
REMARK   98  A    between atoms: _217  and  _218
REMARK   99  A    between atoms: _220  and  _222
REMARK  100  A    between atoms: _222  and  _223
REMARK  101  A    between atoms: _222  and  _225
REMARK  102  A    between atoms: _225  and  _226
REMARK  103  A    between atoms: _229  and  _231
REMARK  104  A    between atoms: _231  and  _232
REMARK  105  A    between atoms: _234  and  _236
REMARK  106  A    between atoms: _236  and  _237
REMARK  107  A    between atoms: _236  and  _239
REMARK  108  A    between atoms: _239  and  _240
REMARK  109  A    between atoms: _240  and  _241
REMARK  110  A    between atoms: _243  and  _245
REMARK  111  A    between atoms: _245  and  _246
REMARK  112  A    between atoms: _245  and  _248
REMARK  113  A    between atoms: _248  and  _249
REMARK  114  A    between atoms: _252  and  _254
REMARK  115  A    between atoms: _254  and  _255
REMARK  116  A    between atoms: _254  and  _257
REMARK  117  A    between atoms: _257  and  _258
REMARK  118  A    between atoms: _258  and  _259
REMARK  119  A    between atoms: _259  and  _260
REMARK  120  A    between atoms: _260  and  _261
REMARK  121  A    between atoms: _265  and  _267
REMARK  122  A    between atoms: _267  and  _268
REMARK  123  A    between atoms: _271  and  _273
REMARK  124  A    between atoms: _273  and  _274
REMARK  125  A    between atoms: _273  and  _276
REMARK  126  A    between atoms: _276  and  _277
REMARK  127  A    between atoms: _280  and  _282
REMARK  128  A    between atoms: _282  and  _283
REMARK  129  A    between atoms: _282  and  _285
REMARK  130  A    between atoms: _285  and  _286
REMARK  131  A    between atoms: _289  and  _291
REMARK  132  A    between atoms: _291  and  _292
REMARK  133  A    between atoms: _291  and  _294
REMARK  134  A    between atoms: _294  and  _295
REMARK  135  A    between atoms: _298  and  _300
REMARK  136  A    between atoms: _300  and  _301
REMARK  137  A    between atoms: _300  and  _303
REMARK  138  A    between atoms: _303  and  _304
REMARK  139  A    between atoms: _309  and  _311
REMARK  140  A    between atoms: _311  and  _312
REMARK  141  A    between atoms: _311  and  _314
REMARK  142  A    between atoms: _314  and  _315
REMARK  143  A    between atoms: _320  and  _322
REMARK  144  A    between atoms: _322  and  _323
REMARK  145  A    between atoms: _322  and  _325
REMARK  146  A    between atoms: _325  and  _326
REMARK  147  A    between atoms: _329  and  _331
REMARK  148  A    between atoms: _331  and  _332
REMARK  149  A    between atoms: _334  and  _336
REMARK  150  A    between atoms: _336  and  _337
REMARK  151  A    between atoms: _336  and  _339
REMARK  152  A    between atoms: _339  and  _340
REMARK  153  A    between atoms: _343  and  _345
REMARK  154  A    between atoms: _345  and  _346
REMARK  155  A    between atoms: _345  and  _348
REMARK  156  A    between atoms: _348  and  _349
REMARK  157  A    between atoms: _352  and  _354
REMARK  158  A    between atoms: _354  and  _355
REMARK  159  A    between atoms: _358  and  _360
REMARK  160  A    between atoms: _360  and  _361
REMARK  161  A    between atoms: _360  and  _363
REMARK  162  A    between atoms: _363  and  _364
REMARK  163  A    between atoms: _364  and  _365
REMARK  164  A    between atoms: _365  and  _366
REMARK  165  A    between atoms: _366  and  _367
REMARK  166  A    between atoms: _371  and  _373
REMARK  167  A    between atoms: _373  and  _374
REMARK  168  A    between atoms: _373  and  _376
REMARK  169  A    between atoms: _376  and  _377
REMARK  170  A    between atoms: _380  and  _382
REMARK  171  A    between atoms: _382  and  _383
REMARK  172  A    between atoms: _382  and  _385
REMARK  173  A    between atoms: _385  and  _386
REMARK  174  A    between atoms: _392  and  _394
REMARK  175  A    between atoms: _394  and  _395
REMARK  176  A    between atoms: _397  and  _399
REMARK  177  A    between atoms: _399  and  _400
REMARK  178  A    between atoms: _399  and  _402
REMARK  179  A    between atoms: _405  and  _407
REMARK  180  A    between atoms: _407  and  _408
REMARK  181  A    between atoms: _410  and  _412
REMARK  182  A    between atoms: _412  and  _413
REMARK  183  A    between atoms: _412  and  _415
REMARK  184  A    between atoms: _415  and  _416
REMARK  185  A    between atoms: _422  and  _424
REMARK  186  A    between atoms: _424  and  _425
REMARK  187  A    between atoms: _424  and  _427
REMARK  188  A    between atoms: _427  and  _428
REMARK  189  A    between atoms: _433  and  _434
REMARK  190  A    between atoms: _436  and  _438
REMARK  191  A    between atoms: _438  and  _439
REMARK  192  A    between atoms: _438  and  _441
REMARK  193  A    between atoms: _441  and  _442
REMARK  194  A    between atoms: _444  and  _446
REMARK  195  A    between atoms: _446  and  _447
REMARK  196  A    between atoms: _446  and  _449
REMARK  197  A    between atoms: _449  and  _450
REMARK  198  A    between atoms: _455  and  _456
REMARK  199  A    between atoms: _458  and  _460
REMARK  200  A    between atoms: _460  and  _461
REMARK  201  A    between atoms: _460  and  _463
REMARK  202  A    between atoms: _466  and  _468
REMARK  203  A    between atoms: _468  and  _469
REMARK  204  A    between atoms: _468  and  _471
REMARK  205  A    between atoms: _471  and  _472
REMARK  206  A    between atoms: _475  and  _477
REMARK  207  A    between atoms: _477  and  _478
REMARK  208  A    between atoms: _477  and  _480
REMARK  209  A    between atoms: _483  and  _485
REMARK  210  A    between atoms: _485  and  _486
REMARK  211  A    between atoms: _485  and  _488
REMARK  212  A    between atoms: _488  and  _489
REMARK  213  A    between atoms: _492  and  _494
REMARK  214  A    between atoms: _494  and  _495
REMARK  215  A    between atoms: _494  and  _497
REMARK  216  A    between atoms: _497  and  _498
REMARK  217  A    between atoms: _501  and  _503
REMARK  218  A    between atoms: _503  and  _504
REMARK  219  A    between atoms: _503  and  _506
REMARK  220  A    between atoms: _506  and  _507
REMARK  221  A    between atoms: _507  and  _508
REMARK  222  A    between atoms: _508  and  _509
REMARK  223  A    between atoms: _509  and  _510
REMARK  224  A    between atoms: _514  and  _516
REMARK  225  A    between atoms: _516  and  _517
REMARK  226  A    between atoms: _516  and  _519
REMARK  227  A    between atoms: _519  and  _520
REMARK  228  A    between atoms: _525  and  _527
REMARK  229  A    between atoms: _527  and  _528
REMARK  230  A    between atoms: _527  and  _530
REMARK  231  A    between atoms: _530  and  _531
REMARK  232  A    between atoms: _541  and  _543
REMARK  233  A    between atoms: _543  and  _544
REMARK  234  A    between atoms: _543  and  _546
REMARK  235  A    between atoms: _546  and  _547
REMARK  236  A    between atoms: _547  and  _548
REMARK  237  A    between atoms: _551  and  _553
REMARK  238  A    between atoms: _553  and  _554
REMARK  239  A    between atoms: _553  and  _556
REMARK  240  A    between atoms: _556  and  _557
REMARK  241  A    between atoms: _559  and  _561
REMARK  242  A    between atoms: _561  and  _562
REMARK  243  A    between atoms: _561  and  _564
REMARK  244  A    between atoms: _564  and  _565
REMARK  245  A    between atoms: _571  and  _573
REMARK  246  A    between atoms: _573  and  _574
REMARK  247  A    between atoms: _573  and  _576
REMARK  248  A    between atoms: _576  and  _577
REMARK  249  A    between atoms: _580  and  _582
REMARK  250  A    between atoms: _582  and  _583
REMARK  251  A    between atoms: _582  and  _585
REMARK  252  A    between atoms: _588  and  _590
REMARK  253  A    between atoms: _590  and  _591
REMARK  254  A    between atoms: _593  and  _595
REMARK  255  A    between atoms: _595  and  _596
REMARK  256  A    between atoms: _595  and  _598
REMARK  257  A    between atoms: _598  and  _599
REMARK  258  A    between atoms: _602  and  _604
REMARK  259  A    between atoms: _604  and  _605
REMARK  260  A    between atoms: _604  and  _607
REMARK  261  A    between atoms: _607  and  _608
REMARK  262  A    between atoms: _608  and  _609
REMARK  263  A    between atoms: _609  and  _610
REMARK  264  A    between atoms: _610  and  _611
REMARK  265  A    between atoms: _615  and  _617
REMARK  266  A    between atoms: _617  and  _618
REMARK  267  A    between atoms: _617  and  _620
REMARK                            x       y       z     vdW  Elec       q    Type
REMARK                         _______ _______ _______ _____ _____    ______ ____
ROOT
ATOM      1  C   GLY A   4      23.268  10.591  22.299  0.00  0.00    +0.243 C 
ATOM      2  O   GLY A   4      24.086  11.489  22.514  0.00  0.00    -0.273 OA
ATOM      3  N   PHE A   5      22.074  10.816  21.688  0.00  0.00    -0.297 N 
ATOM      4  H   PHE A   5      21.432  10.011  21.543  0.00  0.00    +0.150 HD
ENDROOT
BRANCH   3   5
ATOM      5  CA  PHE A   5      21.646  12.149  21.221  0.00  0.00    +0.153 C 
BRANCH   5   6
ATOM      6  C   PHE A   5      21.800  13.179  22.343  0.00  0.00    +0.241 C 
ATOM      7  N   TYR A   6      21.376  12.828  23.597  0.00  0.00    -0.297 N 
ATOM      8  H   TYR A   6      21.019  11.863  23.745  0.00  0.00    +0.150 HD
ATOM      9  O   PHE A   5      22.256  14.277  22.077  0.00  0.00    -0.273 OA
BRANCH   7  10
ATOM     10  CA  TYR A   6      21.400  13.740  24.737  0.00  0.00    +0.153 C 
BRANCH  10  11
ATOM     11  C   TYR A   6      22.827  14.123  25.188  0.00  0.00    +0.241 C 
ATOM     12  O   TYR A   6      22.936  15.118  25.911  0.00  0.00    -0.273 OA
ATOM     13  N   SER A   7      23.906  13.450  24.674  0.00  0.00    -0.296 N 
ATOM     14  H   SER A   7      23.730  12.650  24.033  0.00  0.00    +0.150 HD
BRANCH  13  15
ATOM     15  CA  SER A   7      25.319  13.807  24.988  0.00  0.00    +0.166 C 
BRANCH  15  16
ATOM     16  CB  SER A   7      25.605  15.206  24.423  0.00  0.00    +0.229 C 
ATOM     17  OG  SER A   7      26.580  15.821  24.828  0.00  0.00    -0.286 OA
ENDBRANCH  15  16
BRANCH  15  18
ATOM     18  C   SER A   7      26.307  12.799  24.395  0.00  0.00    +0.165 C 
BRANCH  18  19
ATOM     19  O   SER A   7      26.339  12.845  22.967  0.00  0.00    -0.380 OA
ATOM     20  H   SER A   7      25.439  12.638  22.611  0.00  0.00    +0.211 HD
ENDBRANCH  18  19
ENDBRANCH  15  18
ENDBRANCH  13  15
ENDBRANCH  10  11
BRANCH  10  21
ATOM     21  CB  TYR A   6      20.532  13.222  25.912  0.00  0.00    +0.055 C 
BRANCH  21  22
ATOM     22  CG  TYR A   6      19.062  13.256  25.522  0.00  0.00    -0.020 A 
ATOM     23  CD2 TYR A   6      18.358  14.457  25.489  0.00  0.00    -0.001 A 
ATOM     24  CE2 TYR A   6      17.019  14.505  25.061  0.00  0.00    +0.036 A 
ATOM     25  CZ  TYR A   6      16.384  13.344  24.661  0.00  0.00    +0.134 A 
ATOM     26  CE1 TYR A   6      17.066  12.133  24.681  0.00  0.00    +0.036 A 
ATOM     27  CD1 TYR A   6      18.398  12.095  25.120  0.00  0.00    -0.001 A 
BRANCH  25  28
ATOM     28  OH  TYR A   6      15.071  13.411  24.282  0.00  0.00    -0.506 OA
ATOM     29  HH  TYR A   6      14.980  13.081  23.353  0.00  0.00    +0.292 HD
ENDBRANCH  25  28
ENDBRANCH  21  22
ENDBRANCH  10  21
ENDBRANCH   7  10
ENDBRANCH   5   6
BRANCH   5  30
ATOM     30  CB  PHE A   5      20.152  12.142  20.736  0.00  0.00    +0.055 C 
BRANCH  30  31
ATOM     31  CG  PHE A   5      19.570  13.552  20.586  0.00  0.00    -0.020 A 
ATOM     32  CD2 PHE A   5      18.751  14.097  21.578  0.00  0.00    -0.004 A 
ATOM     33  CE2 PHE A   5      18.258  15.416  21.467  0.00  0.00    -0.000 A 
ATOM     34  CZ  PHE A   5      18.594  16.192  20.369  0.00  0.00    -0.000 A 
ATOM     35  CE1 PHE A   5      19.430  15.677  19.384  0.00  0.00    -0.000 A 
ATOM     36  CD1 PHE A   5      19.922  14.363  19.496  0.00  0.00    -0.004 A 
ENDBRANCH  30  31
ENDBRANCH   5  30
ENDBRANCH   3   5
BRANCH   1  37
ATOM     37  CA  GLY A   4      23.561   9.185  22.761  0.00  0.00    +0.176 C 
BRANCH  37  40
ATOM     38  C   VAL A   3      21.490   8.758  24.032  0.00  0.00    +0.241 C 
ATOM     39  O   VAL A   3      21.517   9.853  24.640  0.00  0.00    -0.273 OA
ATOM     40  N   GLY A   4      22.390   8.396  23.118  0.00  0.00    -0.295 N 
ATOM     41  H   GLY A   4      22.247   7.490  22.627  0.00  0.00    +0.150 HD
BRANCH  38  42
ATOM     42  CA  VAL A   3      20.324   7.770  24.236  0.00  0.00    +0.149 C 
BRANCH  42  44
ATOM     43  C   GLY A   2      20.177   5.616  23.004  0.00  0.00    +0.243 C 
ATOM     44  N   VAL A   3      20.713   6.358  24.007  0.00  0.00    -0.297 N 
ATOM     45  H   VAL A   3      21.419   5.922  24.634  0.00  0.00    +0.150 HD
ATOM     46  O   GLY A   2      19.370   6.083  22.184  0.00  0.00    -0.273 OA
BRANCH  43  47
ATOM     47  CA  GLY A   2      20.616   4.160  22.879  0.00  0.00    +0.176 C 
BRANCH  47  50
ATOM     48  C   PHE A   1      20.911   3.357  25.226  0.00  0.00    +0.239 C 
ATOM     49  O   PHE A   1      19.752   3.581  25.586  0.00  0.00    -0.274 OA
ATOM     50  N   GLY A   2      21.388   3.610  24.004  0.00  0.00    -0.296 N 
ATOM     51  H   GLY A   2      22.392   3.400  23.833  0.00  0.00    +0.150 HD
BRANCH  48  52
ATOM     52  CA  PHE A   1      21.887   2.760  26.226  0.00  0.00    +0.149 C 
BRANCH  52  53
ATOM     53  N   PHE A   1      23.264   2.684  25.712  0.00  0.00    -0.238 NA
ATOM     54  H   PHE A   1      23.823   3.561  25.720  0.00  0.00    +0.142 HD
ENDBRANCH  52  53
BRANCH  52  55
ATOM     55  CB  PHE A   1      21.817   3.486  27.582  0.00  0.00    +0.053 C 
BRANCH  55  56
ATOM     56  CG  PHE A   1      22.544   2.712  28.655  0.00  0.00    -0.020 A 
ATOM     57  CD2 PHE A   1      21.899   1.690  29.366  0.00  0.00    -0.004 A 
ATOM     58  CE2 PHE A   1      22.581   0.971  30.375  0.00  0.00    -0.000 A 
ATOM     59  CZ  PHE A   1      23.908   1.258  30.652  0.00  0.00    -0.000 A 
ATOM     60  CE1 PHE A   1      24.572   2.247  29.937  0.00  0.00    -0.000 A 
ATOM     61  CD1 PHE A   1      23.889   2.970  28.933  0.00  0.00    -0.004 A 
ENDBRANCH  55  56
ENDBRANCH  52  55
ENDBRANCH  48  52
ENDBRANCH  47  50
ENDBRANCH  43  47
ENDBRANCH  42  44
BRANCH  42  62
ATOM     62  CB  VAL A   3      19.618   7.960  25.619  0.00  0.00    +0.027 C 
ATOM     63  CG2 VAL A   3      20.483   7.491  26.790  0.00  0.00    +0.002 C 
ATOM     64  CG1 VAL A   3      18.266   7.241  25.631  0.00  0.00    +0.002 C 
ENDBRANCH  42  62
ENDBRANCH  38  42
ENDBRANCH  37  40
ENDBRANCH   1  37
TORSDOF 24
REMARK  Name = ../refined-set-2016/4nh7/4nh7_pocket.pdb
REMARK  267 active torsions:
REMARK  status: ('A' for Active; 'I' for Inactive)
REMARK    1  A    between atoms: _1  and  _3
REMARK    2  A    between atoms: _3  and  _4
REMARK    3  A    between atoms: _3  and  _6
REMARK    4  A    between atoms: _6  and  _7
REMARK    5  A    between atoms: _13  and  _15
REMARK    6  A    between atoms: _15  and  _16
REMARK    7  A    between atoms: _15  and  _18
REMARK    8  A    between atoms: _18  and  _19
REMARK    9  A    between atoms: _19  and  _20
REMARK   10  A    between atoms: _25  and  _27
REMARK   11  A    between atoms: _27  and  _28
REMARK   12  A    between atoms: _27  and  _30
REMARK   13  A    between atoms: _30  and  _31
REMARK   14  A    between atoms: _34  and  _36
REMARK   15  A    between atoms: _36  and  _37
REMARK   16  A    between atoms: _36  and  _39
REMARK   17  A    between atoms: _39  and  _40
REMARK   18  A    between atoms: _43  and  _45
REMARK   19  A    between atoms: _45  and  _46
REMARK   20  A    between atoms: _45  and  _48
REMARK   21  A    between atoms: _48  and  _49
REMARK   22  A    between atoms: _49  and  _50
REMARK   23  A    between atoms: _52  and  _54
REMARK   24  A    between atoms: _54  and  _55
REMARK   25  A    between atoms: _54  and  _57
REMARK   26  A    between atoms: _57  and  _58
REMARK   27  A    between atoms: _58  and  _59
REMARK   28  A    between atoms: _62  and  _64
REMARK   29  A    between atoms: _64  and  _65
REMARK   30  A    between atoms: _64  and  _67
REMARK   31  A    between atoms: _67  and  _68
REMARK   32  A    between atoms: _71  and  _73
REMARK   33  A    between atoms: _73  and  _74
REMARK   34  A    between atoms: _73  and  _76
REMARK   35  A    between atoms: _76  and  _77
REMARK   36  A    between atoms: _80  and  _82
REMARK   37  A    between atoms: _82  and  _83
REMARK   38  A    between atoms: _82  and  _85
REMARK   39  A    between atoms: _85  and  _86
REMARK   40  A    between atoms: _88  and  _90
REMARK   41  A    between atoms: _90  and  _91
REMARK   42  A    between atoms: _90  and  _93
REMARK   43  A    between atoms: _93  and  _94
REMARK   44  A    between atoms: _99  and  _101
REMARK   45  A    between atoms: _101  and  _102
REMARK   46  A    between atoms: _101  and  _104
REMARK   47  A    between atoms: _104  and  _105
REMARK   48  A    between atoms: _107  and  _109
REMARK   49  A    between atoms: _109  and  _110
REMARK   50  A    between atoms: _109  and  _112
REMARK   51  A    between atoms: _112  and  _113
REMARK   52  A    between atoms: _115  and  _117
REMARK   53  A    between atoms: _117  and  _118
REMARK   54  A    between atoms: _117  and  _120
REMARK   55  A    between atoms: _120  and  _121
REMARK   56  A    between atoms: _124  and  _126
REMARK   57  A    between atoms: _126  and  _127
REMARK   58  A    between atoms: _130  and  _132
REMARK   59  A    between atoms: _132  and  _133
REMARK   60  A    between atoms: _132  and  _135
REMARK   61  A    between atoms: _135  and  _136
REMARK   62  A    between atoms: _139  and  _141
REMARK   63  A    between atoms: _141  and  _142
REMARK   64  A    between atoms: _141  and  _144
REMARK   65  A    between atoms: _144  and  _145
REMARK   66  A    between atoms: _148  and  _150
REMARK   67  A    between atoms: _150  and  _151
REMARK   68  A    between atoms: _150  and  _153
REMARK   69  A    between atoms: _153  and  _154
REMARK   70  A    between atoms: _154  and  _155
REMARK   71  A    between atoms: _155  and  _156
REMARK   72  A    between atoms: _156  and  _157
REMARK   73  A    between atoms: _161  and  _163
REMARK   74  A    between atoms: _163  and  _164
REMARK   75  A    between atoms: _163  and  _166
REMARK   76  A    between atoms: _166  and  _167
REMARK   77  A    between atoms: _170  and  _172
REMARK   78  A    between atoms: _172  and  _173
REMARK   79  A    between atoms: _172  and  _175
REMARK   80  A    between atoms: _175  and  _176
REMARK   81  A    between atoms: _176  and  _177
REMARK   82  A    between atoms: _180  and  _182
REMARK   83  A    between atoms: _182  and  _183
REMARK   84  A    between atoms: _182  and  _185
REMARK   85  A    between atoms: _185  and  _186
REMARK   86  A    between atoms: _189  and  _191
REMARK   87  A    between atoms: _191  and  _192
REMARK   88  A    between atoms: _191  and  _194
REMARK   89  A    between atoms: _197  and  _199
REMARK   90  A    between atoms: _199  and  _200
REMARK   91  A    between atoms: _199  and  _202
REMARK   92  A    between atoms: _202  and  _203
REMARK   93  A    between atoms: _206  and  _208
REMARK   94  A    between atoms: _208  and  _209
REMARK   95  A    between atoms: _208  and  _211
REMARK   96  A    between atoms: _211  and  _212
REMARK   97  A    between atoms: _215  and  _217
REMARK   98  A    between atoms: _217  and  _218
REMARK   99  A    between atoms: _220  and  _222
REMARK  100  A    between atoms: _222  and  _223
REMARK  101  A    between atoms: _222  and  _225
REMARK  102  A    between atoms: _225  and  _226
REMARK  103  A    between atoms: _229  and  _231
REMARK  104  A    between atoms: _231  and  _232
REMARK  105  A    between atoms: _234  and  _236
REMARK  106  A    between atoms: _236  and  _237
REMARK  107  A    between atoms: _236  and  _239
REMARK  108  A    between atoms: _239  and  _240
REMARK  109  A    between atoms: _240  and  _241
REMARK  110  A    between atoms: _243  and  _245
REMARK  111  A    between atoms: _245  and  _246
REMARK  112  A    between atoms: _245  and  _248
REMARK  113  A    between atoms: _248  and  _249
REMARK  114  A    between atoms: _252  and  _254
REMARK  115  A    between atoms: _254  and  _255
REMARK  116  A    between atoms: _254  and  _257
REMARK  117  A    between atoms: _257  and  _258
REMARK  118  A    between atoms: _258  and  _259
REMARK  119  A    between atoms: _259  and  _260
REMARK  120  A    between atoms: _260  and  _261
REMARK  121  A    between atoms: _265  and  _267
REMARK  122  A    between atoms: _267  and  _268
REMARK  123  A    between atoms: _271  and  _273
REMARK  124  A    between atoms: _273  and  _274
REMARK  125  A    between atoms: _273  and  _276
REMARK  126  A    between atoms: _276  and  _277
REMARK  127  A    between atoms: _280  and  _282
REMARK  128  A    between atoms: _282  and  _283
REMARK  129  A    between atoms: _282  and  _285
REMARK  130  A    between atoms: _285  and  _286
REMARK  131  A    between atoms: _289  and  _291
REMARK  132  A    between atoms: _291  and  _292
REMARK  133  A    between atoms: _291  and  _294
REMARK  134  A    between atoms: _294  and  _295
REMARK  135  A    between atoms: _298  and  _300
REMARK  136  A    between atoms: _300  and  _301
REMARK  137  A    between atoms: _300  and  _303
REMARK  138  A    between atoms: _303  and  _304
REMARK  139  A    between atoms: _309  and  _311
REMARK  140  A    between atoms: _311  and  _312
REMARK  141  A    between atoms: _311  and  _314
REMARK  142  A    between atoms: _314  and  _315
REMARK  143  A    between atoms: _320  and  _322
REMARK  144  A    between atoms: _322  and  _323
REMARK  145  A    between atoms: _322  and  _325
REMARK  146  A    between atoms: _325  and  _326
REMARK  147  A    between atoms: _329  and  _331
REMARK  148  A    between atoms: _331  and  _332
REMARK  149  A    between atoms: _334  and  _336
REMARK  150  A    between atoms: _336  and  _337
REMARK  151  A    between atoms: _336  and  _339
REMARK  152  A    between atoms: _339  and  _340
REMARK  153  A    between atoms: _343  and  _345
REMARK  154  A    between atoms: _345  and  _346
REMARK  155  A    between atoms: _345  and  _348
REMARK  156  A    between atoms: _348  and  _349
REMARK  157  A    between atoms: _352  and  _354
REMARK  158  A    between atoms: _354  and  _355
REMARK  159  A    between atoms: _358  and  _360
REMARK  160  A    between atoms: _360  and  _361
REMARK  161  A    between atoms: _360  and  _363
REMARK  162  A    between atoms: _363  and  _364
REMARK  163  A    between atoms: _364  and  _365
REMARK  164  A    between atoms: _365  and  _366
REMARK  165  A    between atoms: _366  and  _367
REMARK  166  A    between atoms: _371  and  _373
REMARK  167  A    between atoms: _373  and  _374
REMARK  168  A    between atoms: _373  and  _376
REMARK  169  A    between atoms: _376  and  _377
REMARK  170  A    between atoms: _380  and  _382
REMARK  171  A    between atoms: _382  and  _383
REMARK  172  A    between atoms: _382  and  _385
REMARK  173  A    between atoms: _385  and  _386
REMARK  174  A    between atoms: _392  and  _394
REMARK  175  A    between atoms: _394  and  _395
REMARK  176  A    between atoms: _397  and  _399
REMARK  177  A    between atoms: _399  and  _400
REMARK  178  A    between atoms: _399  and  _402
REMARK  179  A    between atoms: _405  and  _407
REMARK  180  A    between atoms: _407  and  _408
REMARK  181  A    between atoms: _410  and  _412
REMARK  182  A    between atoms: _412  and  _413
REMARK  183  A    between atoms: _412  and  _415
REMARK  184  A    between atoms: _415  and  _416
REMARK  185  A    between atoms: _422  and  _424
REMARK  186  A    between atoms: _424  and  _425
REMARK  187  A    between atoms: _424  and  _427
REMARK  188  A    between atoms: _427  and  _428
REMARK  189  A    between atoms: _433  and  _434
REMARK  190  A    between atoms: _436  and  _438
REMARK  191  A    between atoms: _438  and  _439
REMARK  192  A    between atoms: _438  and  _441
REMARK  193  A    between atoms: _441  and  _442
REMARK  194  A    between atoms: _444  and  _446
REMARK  195  A    between atoms: _446  and  _447
REMARK  196  A    between atoms: _446  and  _449
REMARK  197  A    between atoms: _449  and  _450
REMARK  198  A    between atoms: _455  and  _456
REMARK  199  A    between atoms: _458  and  _460
REMARK  200  A    between atoms: _460  and  _461
REMARK  201  A    between atoms: _460  and  _463
REMARK  202  A    between atoms: _466  and  _468
REMARK  203  A    between atoms: _468  and  _469
REMARK  204  A    between atoms: _468  and  _471
REMARK  205  A    between atoms: _471  and  _472
REMARK  206  A    between atoms: _475  and  _477
REMARK  207  A    between atoms: _477  and  _478
REMARK  208  A    between atoms: _477  and  _480
REMARK  209  A    between atoms: _483  and  _485
REMARK  210  A    between atoms: _485  and  _486
REMARK  211  A    between atoms: _485  and  _488
REMARK  212  A    between atoms: _488  and  _489
REMARK  213  A    between atoms: _492  and  _494
REMARK  214  A    between atoms: _494  and  _495
REMARK  215  A    between atoms: _494  and  _497
REMARK  216  A    between atoms: _497  and  _498
REMARK  217  A    between atoms: _501  and  _503
REMARK  218  A    between atoms: _503  and  _504
REMARK  219  A    between atoms: _503  and  _506
REMARK  220  A    between atoms: _506  and  _507
REMARK  221  A    between atoms: _507  and  _508
REMARK  222  A    between atoms: _508  and  _509
REMARK  223  A    between atoms: _509  and  _510
REMARK  224  A    between atoms: _514  and  _516
REMARK  225  A    between atoms: _516  and  _517
REMARK  226  A    between atoms: _516  and  _519
REMARK  227  A    between atoms: _519  and  _520
REMARK  228  A    between atoms: _525  and  _527
REMARK  229  A    between atoms: _527  and  _528
REMARK  230  A    between atoms: _527  and  _530
REMARK  231  A    between atoms: _530  and  _531
REMARK  232  A    between atoms: _541  and  _543
REMARK  233  A    between atoms: _543  and  _544
REMARK  234  A    between atoms: _543  and  _546
REMARK  235  A    between atoms: _546  and  _547
REMARK  236  A    between atoms: _547  and  _548
REMARK  237  A    between atoms: _551  and  _553
REMARK  238  A    between atoms: _553  and  _554
REMARK  239  A    between atoms: _553  and  _556
REMARK  240  A    between atoms: _556  and  _557
REMARK  241  A    between atoms: _559  and  _561
REMARK  242  A    between atoms: _561  and  _562
REMARK  243  A    between atoms: _561  and  _564
REMARK  244  A    between atoms: _564  and  _565
REMARK  245  A    between atoms: _571  and  _573
REMARK  246  A    between atoms: _573  and  _574
REMARK  247  A    between atoms: _573  and  _576
REMARK  248  A    between atoms: _576  and  _577
REMARK  249  A    between atoms: _580  and  _582
REMARK  250  A    between atoms: _582  and  _583
REMARK  251  A    between atoms: _582  and  _585
REMARK  252  A    between atoms: _588  and  _590
REMARK  253  A    between atoms: _590  and  _591
REMARK  254  A    between atoms: _593  and  _595
REMARK  255  A    between atoms: _595  and  _596
REMARK  256  A    between atoms: _595  and  _598
REMARK  257  A    between atoms: _598  and  _599
REMARK  258  A    between atoms: _602  and  _604
REMARK  259  A    between atoms: _604  and  _605
REMARK  260  A    between atoms: _604  and  _607
REMARK  261  A    between atoms: _607  and  _608
REMARK  262  A    between atoms: _608  and  _609
REMARK  263  A    between atoms: _609  and  _610
REMARK  264  A    between atoms: _610  and  _611
REMARK  265  A    between atoms: _615  and  _617
REMARK  266  A    between atoms: _617  and  _618
REMARK  267  A    between atoms: _617  and  _620
REMARK                            x       y       z     vdW  Elec       q    Type
REMARK                         _______ _______ _______ _____ _____    ______ ____
ROOT
ATOM      1  CG  TYR A   1      21.495  18.915  26.113  0.00  0.00    -0.020 A 
ATOM      2  CD2 TYR A   1      21.092  20.254  26.044  0.00  0.00    -0.001 A 
ATOM      3  CE2 TYR A   1      19.975  20.641  25.287  0.00  0.00    +0.036 A 
ATOM      4  CZ  TYR A   1      19.267  19.686  24.571  0.00  0.00    +0.134 A 
ATOM      5  CE1 TYR A   1      19.655  18.349  24.614  0.00  0.00    +0.036 A 
ATOM      6  CD1 TYR A   1      20.751  17.968  25.404  0.00  0.00    -0.001 A 
ENDROOT
BRANCH   4   7
ATOM      7  OH  TYR A   1      18.204  20.090  23.803  0.00  0.00    -0.506 OA
ATOM      8  HH  TYR A   1      18.081  21.068  23.900  0.00  0.00    +0.292 HD
ENDBRANCH   4   7
BRANCH   1   9
ATOM      9  CB  TYR A   1      22.714  18.504  26.935  0.00  0.00    +0.051 C 
BRANCH   9  10
ATOM     10  CA  TYR A   1      23.985  18.813  26.146  0.00  0.00    +0.137 C 
BRANCH  10  11
ATOM     11  N   TYR A   1      24.138  17.876  25.057  0.00  0.00    -0.239 NA
ATOM     12  H   TYR A   1      23.652  16.959  25.125  0.00  0.00    +0.142 HD
ENDBRANCH  10  11
BRANCH  10  13
ATOM     13  C   TYR A   1      25.234  18.928  27.014  0.00  0.00    +0.224 C 
ATOM     14  O   TYR A   1      25.284  19.825  27.871  0.00  0.00    -0.287 OA
ENDBRANCH  10  13
ENDBRANCH   9  10
ENDBRANCH   1   9
TORSDOF 5
REMARK  Name = ../refined-set-2016/4nh7/4nh7_pocket.pdb
REMARK  267 active torsions:
REMARK  status: ('A' for Active; 'I' for Inactive)
REMARK    1  A    between atoms: _1  and  _3
REMARK    2  A    between atoms: _3  and  _4
REMARK    3  A    between atoms: _3  and  _6
REMARK    4  A    between atoms: _6  and  _7
REMARK    5  A    between atoms: _13  and  _15
REMARK    6  A    between atoms: _15  and  _16
REMARK    7  A    between atoms: _15  and  _18
REMARK    8  A    between atoms: _18  and  _19
REMARK    9  A    between atoms: _19  and  _20
REMARK   10  A    between atoms: _25  and  _27
REMARK   11  A    between atoms: _27  and  _28
REMARK   12  A    between atoms: _27  and  _30
REMARK   13  A    between atoms: _30  and  _31
REMARK   14  A    between atoms: _34  and  _36
REMARK   15  A    between atoms: _36  and  _37
REMARK   16  A    between atoms: _36  and  _39
REMARK   17  A    between atoms: _39  and  _40
REMARK   18  A    between atoms: _43  and  _45
REMARK   19  A    between atoms: _45  and  _46
REMARK   20  A    between atoms: _45  and  _48
REMARK   21  A    between atoms: _48  and  _49
REMARK   22  A    between atoms: _49  and  _50
REMARK   23  A    between atoms: _52  and  _54
REMARK   24  A    between atoms: _54  and  _55
REMARK   25  A    between atoms: _54  and  _57
REMARK   26  A    between atoms: _57  and  _58
REMARK   27  A    between atoms: _58  and  _59
REMARK   28  A    between atoms: _62  and  _64
REMARK   29  A    between atoms: _64  and  _65
REMARK   30  A    between atoms: _64  and  _67
REMARK   31  A    between atoms: _67  and  _68
REMARK   32  A    between atoms: _71  and  _73
REMARK   33  A    between atoms: _73  and  _74
REMARK   34  A    between atoms: _73  and  _76
REMARK   35  A    between atoms: _76  and  _77
REMARK   36  A    between atoms: _80  and  _82
REMARK   37  A    between atoms: _82  and  _83
REMARK   38  A    between atoms: _82  and  _85
REMARK   39  A    between atoms: _85  and  _86
REMARK   40  A    between atoms: _88  and  _90
REMARK   41  A    between atoms: _90  and  _91
REMARK   42  A    between atoms: _90  and  _93
REMARK   43  A    between atoms: _93  and  _94
REMARK   44  A    between atoms: _99  and  _101
REMARK   45  A    between atoms: _101  and  _102
REMARK   46  A    between atoms: _101  and  _104
REMARK   47  A    between atoms: _104  and  _105
REMARK   48  A    between atoms: _107  and  _109
REMARK   49  A    between atoms: _109  and  _110
REMARK   50  A    between atoms: _109  and  _112
REMARK   51  A    between atoms: _112  and  _113
REMARK   52  A    between atoms: _115  and  _117
REMARK   53  A    between atoms: _117  and  _118
REMARK   54  A    between atoms: _117  and  _120
REMARK   55  A    between atoms: _120  and  _121
REMARK   56  A    between atoms: _124  and  _126
REMARK   57  A    between atoms: _126  and  _127
REMARK   58  A    between atoms: _130  and  _132
REMARK   59  A    between atoms: _132  and  _133
REMARK   60  A    between atoms: _132  and  _135
REMARK   61  A    between atoms: _135  and  _136
REMARK   62  A    between atoms: _139  and  _141
REMARK   63  A    between atoms: _141  and  _142
REMARK   64  A    between atoms: _141  and  _144
REMARK   65  A    between atoms: _144  and  _145
REMARK   66  A    between atoms: _148  and  _150
REMARK   67  A    between atoms: _150  and  _151
REMARK   68  A    between atoms: _150  and  _153
REMARK   69  A    between atoms: _153  and  _154
REMARK   70  A    between atoms: _154  and  _155
REMARK   71  A    between atoms: _155  and  _156
REMARK   72  A    between atoms: _156  and  _157
REMARK   73  A    between atoms: _161  and  _163
REMARK   74  A    between atoms: _163  and  _164
REMARK   75  A    between atoms: _163  and  _166
REMARK   76  A    between atoms: _166  and  _167
REMARK   77  A    between atoms: _170  and  _172
REMARK   78  A    between atoms: _172  and  _173
REMARK   79  A    between atoms: _172  and  _175
REMARK   80  A    between atoms: _175  and  _176
REMARK   81  A    between atoms: _176  and  _177
REMARK   82  A    between atoms: _180  and  _182
REMARK   83  A    between atoms: _182  and  _183
REMARK   84  A    between atoms: _182  and  _185
REMARK   85  A    between atoms: _185  and  _186
REMARK   86  A    between atoms: _189  and  _191
REMARK   87  A    between atoms: _191  and  _192
REMARK   88  A    between atoms: _191  and  _194
REMARK   89  A    between atoms: _197  and  _199
REMARK   90  A    between atoms: _199  and  _200
REMARK   91  A    between atoms: _199  and  _202
REMARK   92  A    between atoms: _202  and  _203
REMARK   93  A    between atoms: _206  and  _208
REMARK   94  A    between atoms: _208  and  _209
REMARK   95  A    between atoms: _208  and  _211
REMARK   96  A    between atoms: _211  and  _212
REMARK   97  A    between atoms: _215  and  _217
REMARK   98  A    between atoms: _217  and  _218
REMARK   99  A    between atoms: _220  and  _222
REMARK  100  A    between atoms: _222  and  _223
REMARK  101  A    between atoms: _222  and  _225
REMARK  102  A    between atoms: _225  and  _226
REMARK  103  A    between atoms: _229  and  _231
REMARK  104  A    between atoms: _231  and  _232
REMARK  105  A    between atoms: _234  and  _236
REMARK  106  A    between atoms: _236  and  _237
REMARK  107  A    between atoms: _236  and  _239
REMARK  108  A    between atoms: _239  and  _240
REMARK  109  A    between atoms: _240  and  _241
REMARK  110  A    between atoms: _243  and  _245
REMARK  111  A    between atoms: _245  and  _246
REMARK  112  A    between atoms: _245  and  _248
REMARK  113  A    between atoms: _248  and  _249
REMARK  114  A    between atoms: _252  and  _254
REMARK  115  A    between atoms: _254  and  _255
REMARK  116  A    between atoms: _254  and  _257
REMARK  117  A    between atoms: _257  and  _258
REMARK  118  A    between atoms: _258  and  _259
REMARK  119  A    between atoms: _259  and  _260
REMARK  120  A    between atoms: _260  and  _261
REMARK  121  A    between atoms: _265  and  _267
REMARK  122  A    between atoms: _267  and  _268
REMARK  123  A    between atoms: _271  and  _273
REMARK  124  A    between atoms: _273  and  _274
REMARK  125  A    between atoms: _273  and  _276
REMARK  126  A    between atoms: _276  and  _277
REMARK  127  A    between atoms: _280  and  _282
REMARK  128  A    between atoms: _282  and  _283
REMARK  129  A    between atoms: _282  and  _285
REMARK  130  A    between atoms: _285  and  _286
REMARK  131  A    between atoms: _289  and  _291
REMARK  132  A    between atoms: _291  and  _292
REMARK  133  A    between atoms: _291  and  _294
REMARK  134  A    between atoms: _294  and  _295
REMARK  135  A    between atoms: _298  and  _300
REMARK  136  A    between atoms: _300  and  _301
REMARK  137  A    between atoms: _300  and  _303
REMARK  138  A    between atoms: _303  and  _304
REMARK  139  A    between atoms: _309  and  _311
REMARK  140  A    between atoms: _311  and  _312
REMARK  141  A    between atoms: _311  and  _314
REMARK  142  A    between atoms: _314  and  _315
REMARK  143  A    between atoms: _320  and  _322
REMARK  144  A    between atoms: _322  and  _323
REMARK  145  A    between atoms: _322  and  _325
REMARK  146  A    between atoms: _325  and  _326
REMARK  147  A    between atoms: _329  and  _331
REMARK  148  A    between atoms: _331  and  _332
REMARK  149  A    between atoms: _334  and  _336
REMARK  150  A    between atoms: _336  and  _337
REMARK  151  A    between atoms: _336  and  _339
REMARK  152  A    between atoms: _339  and  _340
REMARK  153  A    between atoms: _343  and  _345
REMARK  154  A    between atoms: _345  and  _346
REMARK  155  A    between atoms: _345  and  _348
REMARK  156  A    between atoms: _348  and  _349
REMARK  157  A    between atoms: _352  and  _354
REMARK  158  A    between atoms: _354  and  _355
REMARK  159  A    between atoms: _358  and  _360
REMARK  160  A    between atoms: _360  and  _361
REMARK  161  A    between atoms: _360  and  _363
REMARK  162  A    between atoms: _363  and  _364
REMARK  163  A    between atoms: _364  and  _365
REMARK  164  A    between atoms: _365  and  _366
REMARK  165  A    between atoms: _366  and  _367
REMARK  166  A    between atoms: _371  and  _373
REMARK  167  A    between atoms: _373  and  _374
REMARK  168  A    between atoms: _373  and  _376
REMARK  169  A    between atoms: _376  and  _377
REMARK  170  A    between atoms: _380  and  _382
REMARK  171  A    between atoms: _382  and  _383
REMARK  172  A    between atoms: _382  and  _385
REMARK  173  A    between atoms: _385  and  _386
REMARK  174  A    between atoms: _392  and  _394
REMARK  175  A    between atoms: _394  and  _395
REMARK  176  A    between atoms: _397  and  _399
REMARK  177  A    between atoms: _399  and  _400
REMARK  178  A    between atoms: _399  and  _402
REMARK  179  A    between atoms: _405  and  _407
REMARK  180  A    between atoms: _407  and  _408
REMARK  181  A    between atoms: _410  and  _412
REMARK  182  A    between atoms: _412  and  _413
REMARK  183  A    between atoms: _412  and  _415
REMARK  184  A    between atoms: _415  and  _416
REMARK  185  A    between atoms: _422  and  _424
REMARK  186  A    between atoms: _424  and  _425
REMARK  187  A    between atoms: _424  and  _427
REMARK  188  A    between atoms: _427  and  _428
REMARK  189  A    between atoms: _433  and  _434
REMARK  190  A    between atoms: _436  and  _438
REMARK  191  A    between atoms: _438  and  _439
REMARK  192  A    between atoms: _438  and  _441
REMARK  193  A    between atoms: _441  and  _442
REMARK  194  A    between atoms: _444  and  _446
REMARK  195  A    between atoms: _446  and  _447
REMARK  196  A    between atoms: _446  and  _449
REMARK  197  A    between atoms: _449  and  _450
REMARK  198  A    between atoms: _455  and  _456
REMARK  199  A    between atoms: _458  and  _460
REMARK  200  A    between atoms: _460  and  _461
REMARK  201  A    between atoms: _460  and  _463
REMARK  202  A    between atoms: _466  and  _468
REMARK  203  A    between atoms: _468  and  _469
REMARK  204  A    between atoms: _468  and  _471
REMARK  205  A    between atoms: _471  and  _472
REMARK  206  A    between atoms: _475  and  _477
REMARK  207  A    between atoms: _477  and  _478
REMARK  208  A    between atoms: _477  and  _480
REMARK  209  A    between atoms: _483  and  _485
REMARK  210  A    between atoms: _485  and  _486
REMARK  211  A    between atoms: _485  and  _488
REMARK  212  A    between atoms: _488  and  _489
REMARK  213  A    between atoms: _492  and  _494
REMARK  214  A    between atoms: _494  and  _495
REMARK  215  A    between atoms: _494  and  _497
REMARK  216  A    between atoms: _497  and  _498
REMARK  217  A    between atoms: _501  and  _503
REMARK  218  A    between atoms: _503  and  _504
REMARK  219  A    between atoms: _503  and  _506
REMARK  220  A    between atoms: _506  and  _507
REMARK  221  A    between atoms: _507  and  _508
REMARK  222  A    between atoms: _508  and  _509
REMARK  223  A    between atoms: _509  and  _510
REMARK  224  A    between atoms: _514  and  _516
REMARK  225  A    between atoms: _516  and  _517
REMARK  226  A    between atoms: _516  and  _519
REMARK  227  A    between atoms: _519  and  _520
REMARK  228  A    between atoms: _525  and  _527
REMARK  229  A    between atoms: _527  and  _528
REMARK  230  A    between atoms: _527  and  _530
REMARK  231  A    between atoms: _530  and  _531
REMARK  232  A    between atoms: _541  and  _543
REMARK  233  A    between atoms: _543  and  _544
REMARK  234  A    between atoms: _543  and  _546
REMARK  235  A    between atoms: _546  and  _547
REMARK  236  A    between atoms: _547  and  _548
REMARK  237  A    between atoms: _551  and  _553
REMARK  238  A    between atoms: _553  and  _554
REMARK  239  A    between atoms: _553  and  _556
REMARK  240  A    between atoms: _556  and  _557
REMARK  241  A    between atoms: _559  and  _561
REMARK  242  A    between atoms: _561  and  _562
REMARK  243  A    between atoms: _561  and  _564
REMARK  244  A    between atoms: _564  and  _565
REMARK  245  A    between atoms: _571  and  _573
REMARK  246  A    between atoms: _573  and  _574
REMARK  247  A    between atoms: _573  and  _576
REMARK  248  A    between atoms: _576  and  _577
REMARK  249  A    between atoms: _580  and  _582
REMARK  250  A    between atoms: _582  and  _583
REMARK  251  A    between atoms: _582  and  _585
REMARK  252  A    between atoms: _588  and  _590
REMARK  253  A    between atoms: _590  and  _591
REMARK  254  A    between atoms: _593  and  _595
REMARK  255  A    between atoms: _595  and  _596
REMARK  256  A    between atoms: _595  and  _598
REMARK  257  A    between atoms: _598  and  _599
REMARK  258  A    between atoms: _602  and  _604
REMARK  259  A    between atoms: _604  and  _605
REMARK  260  A    between atoms: _604  and  _607
REMARK  261  A    between atoms: _607  and  _608
REMARK  262  A    between atoms: _608  and  _609
REMARK  263  A    between atoms: _609  and  _610
REMARK  264  A    between atoms: _610  and  _611
REMARK  265  A    between atoms: _615  and  _617
REMARK  266  A    between atoms: _617  and  _618
REMARK  267  A    between atoms: _617  and  _620
REMARK                            x       y       z     vdW  Elec       q    Type
REMARK                         _______ _______ _______ _____ _____    ______ ____
ROOT
ATOM      1  C   ILE A   4      15.470  18.898  11.078  0.00  0.00    +0.241 C 
ATOM      2  O   ILE A   4      16.521  18.320  10.840  0.00  0.00    -0.273 OA
ATOM      3  N   THR A   5      14.259  18.370  10.779  0.00  0.00    -0.295 N 
ATOM      4  H   THR A   5      13.386  18.908  10.955  0.00  0.00    +0.150 HD
ENDROOT
BRANCH   3   5
ATOM      5  CA  THR A   5      14.206  17.020  10.200  0.00  0.00    +0.176 C 
BRANCH   5   6
ATOM      6  C   THR A   5      13.086  16.841   9.186  0.00  0.00    +0.243 C 
ATOM      7  O   THR A   5      12.059  17.504   9.264  0.00  0.00    -0.273 OA
ATOM      8  N   LYS A   6      13.332  15.942   8.234  0.00  0.00    -0.297 N 
ATOM      9  H   LYS A   6      14.246  15.446   8.253  0.00  0.00    +0.150 HD
BRANCH   8  10
ATOM     10  CA  LYS A   6      12.388  15.611   7.161  0.00  0.00    +0.149 C 
BRANCH  10  11
ATOM     11  C   LYS A   6      12.459  14.163   6.823  0.00  0.00    +0.241 C 
ATOM     12  N   HIS A   7      11.327  13.473   7.071  0.00  0.00    -0.298 N 
ATOM     13  H   HIS A   7      10.540  13.992   7.509  0.00  0.00    +0.150 HD
ATOM     14  O   LYS A   6      13.497  13.674   6.359  0.00  0.00    -0.273 OA
BRANCH  12  15
ATOM     15  CA  HIS A   7      11.114  12.067   6.779  0.00  0.00    +0.143 C 
BRANCH  15  16
ATOM     16  C   HIS A   7      10.171  12.063   5.567  0.00  0.00    +0.227 C 
ATOM     17  O   HIS A   7       9.301  12.965   5.446  0.00  0.00    -0.286 OA
ENDBRANCH  15  16
BRANCH  15  18
ATOM     18  CB  HIS A   7      10.419  11.393   7.970  0.00  0.00    +0.075 C 
BRANCH  18  19
ATOM     19  CG  HIS A   7      10.189   9.905   7.824  0.00  0.00    +0.082 A 
ATOM     20  CD2 HIS A   7      10.813   8.873   8.431  0.00  0.00    +0.115 A 
ATOM     21  NE2 HIS A   7      10.189   7.707   7.982  0.00  0.00    -0.221 NA
ATOM     22  CE1 HIS A   7       9.221   8.078   7.135  0.00  0.00    +0.199 A 
ATOM     23  ND1 HIS A   7       9.174   9.396   7.018  0.00  0.00    -0.227 NA
ENDBRANCH  18  19
ENDBRANCH  15  18
ENDBRANCH  12  15
ENDBRANCH  10  11
BRANCH  10  24
ATOM     24  CB  LYS A   6      12.635  16.491   5.927  0.00  0.00    +0.029 C 
BRANCH  24  25
ATOM     25  CG  LYS A   6      11.745  16.190   4.713  0.00  0.00    +0.000 C 
BRANCH  25  26
ATOM     26  CD  LYS A   6      10.290  16.640   4.896  0.00  0.00    -0.024 C 
BRANCH  26  27
ATOM     27  CE  LYS A   6       9.575  16.476   3.552  0.00  0.00    -0.086 C 
BRANCH  27  28
ATOM     28  NZ  LYS A   6       9.316  15.038   3.259  0.00  0.00    +0.380 N 
ATOM     29  HZ1 LYS A   6       8.717  14.635   4.008  0.00  0.00    -0.089 HD
ATOM     30  HZ2 LYS A   6      10.220  14.525   3.222  0.00  0.00    -0.089 HD
ATOM     31  HZ3 LYS A   6       8.831  14.954   2.343  0.00  0.00    -0.089 HD
ENDBRANCH  27  28
ENDBRANCH  26  27
ENDBRANCH  25  26
ENDBRANCH  24  25
ENDBRANCH  10  24
ENDBRANCH   8  10
ENDBRANCH   5   6
BRANCH   5  32
ATOM     32  CB  THR A   5      14.161  15.954  11.300  0.00  0.00    +0.137 C 
ATOM     33  CG2 THR A   5      12.879  16.000  12.141  0.00  0.00    +0.034 C 
BRANCH  32  34
ATOM     34  OG1 THR A   5      14.374  14.641  10.754  0.00  0.00    -0.382 OA
ATOM     35  HG1 THR A   5      15.261  14.607  10.315  0.00  0.00    +0.210 HD
ENDBRANCH  32  34
ENDBRANCH   5  32
ENDBRANCH   3   5
BRANCH   1  36
ATOM     36  CA  ILE A   4      15.532  20.260  11.742  0.00  0.00    +0.149 C 
BRANCH  36  39
ATOM     37  C   VAL A   3      15.807  19.868  14.189  0.00  0.00    +0.241 C 
ATOM     38  O   VAL A   3      14.622  20.030  14.411  0.00  0.00    -0.273 OA
ATOM     39  N   ILE A   4      16.349  19.982  12.950  0.00  0.00    -0.297 N 
ATOM     40  H   ILE A   4      17.377  19.870  12.843  0.00  0.00    +0.150 HD
BRANCH  37  41
ATOM     41  CA  VAL A   3      16.738  19.547  15.362  0.00  0.00    +0.149 C 
BRANCH  41  43
ATOM     42  C   THR A   2      17.853  21.455  16.480  0.00  0.00    +0.243 C 
ATOM     43  N   VAL A   3      16.755  20.715  16.254  0.00  0.00    -0.297 N 
ATOM     44  H   VAL A   3      15.872  20.982  16.735  0.00  0.00    +0.150 HD
ATOM     45  O   THR A   2      18.957  21.170  16.018  0.00  0.00    -0.273 OA
BRANCH  42  46
ATOM     46  CA  THR A   2      17.723  22.653  17.436  0.00  0.00    +0.176 C 
BRANCH  46  49
ATOM     47  C   VAL A   1      18.685  22.282  19.695  0.00  0.00    +0.238 C 
ATOM     48  O   VAL A   1      17.587  22.293  20.222  0.00  0.00    -0.274 OA
ATOM     49  N   THR A   2      18.868  22.493  18.384  0.00  0.00    -0.295 N 
ATOM     50  H   THR A   2      19.838  22.547  18.014  0.00  0.00    +0.150 HD
BRANCH  47  51
ATOM     51  CA  VAL A   1      19.906  22.028  20.570  0.00  0.00    +0.145 C 
BRANCH  51  52
ATOM     52  CB  VAL A   1      20.120  20.498  20.896  0.00  0.00    +0.025 C 
ATOM     53  CG2 VAL A   1      21.368  20.273  21.772  0.00  0.00    +0.002 C 
ATOM     54  CG1 VAL A   1      20.251  19.674  19.616  0.00  0.00    +0.002 C 
ENDBRANCH  51  52
BRANCH  51  55
ATOM     55  N   VAL A   1      19.756  22.849  21.763  0.00  0.00    -0.238 NA
ATOM     56  H   VAL A   1      18.933  22.716  22.385  0.00  0.00    +0.142 HD
ENDBRANCH  51  55
ENDBRANCH  47  51
ENDBRANCH  46  49
BRANCH  46  57
ATOM     57  CB  THR A   2      17.779  23.996  16.687  0.00  0.00    +0.137 C 
ATOM     58  CG2 THR A   2      16.510  24.275  15.842  0.00  0.00    +0.034 C 
BRANCH  57  59
ATOM     59  OG1 THR A   2      17.859  25.001  17.660  0.00  0.00    -0.382 OA
ATOM     60  HG1 THR A   2      17.061  24.957  18.244  0.00  0.00    +0.210 HD
ENDBRANCH  57  59
ENDBRANCH  46  57
ENDBRANCH  42  46
ENDBRANCH  41  43
BRANCH  41  61
ATOM     61  CB  VAL A   3      16.387  18.219  16.079  0.00  0.00    +0.027 C 
ATOM     62  CG2 VAL A   3      17.462  17.861  17.098  0.00  0.00    +0.002 C 
ATOM     63  CG1 VAL A   3      16.212  17.094  15.082  0.00  0.00    +0.002 C 
ENDBRANCH  41  61
ENDBRANCH  37  41
ENDBRANCH  36  39
BRANCH  36  64
ATOM     64  CB  ILE A   4      16.091  21.365  10.787  0.00  0.00    +0.027 C 
ATOM     65  CG2 ILE A   4      15.069  21.673   9.640  0.00  0.00    +0.002 C 
BRANCH  64  66
ATOM     66  CG1 ILE A   4      16.537  22.692  11.541  0.00  0.00    +0.002 C 
ATOM     67  CD1 ILE A   4      15.451  23.523  12.272  0.00  0.00    +0.000 C 
ENDBRANCH  64  66
ENDBRANCH  36  64
ENDBRANCH   1  36
TORSDOF 29
REMARK  Name = ../refined-set-2016/4nh7/4nh7_pocket.pdb
REMARK  267 active torsions:
REMARK  status: ('A' for Active; 'I' for Inactive)
REMARK    1  A    between atoms: _1  and  _3
REMARK    2  A    between atoms: _3  and  _4
REMARK    3  A    between atoms: _3  and  _6
REMARK    4  A    between atoms: _6  and  _7
REMARK    5  A    between atoms: _13  and  _15
REMARK    6  A    between atoms: _15  and  _16
REMARK    7  A    between atoms: _15  and  _18
REMARK    8  A    between atoms: _18  and  _19
REMARK    9  A    between atoms: _19  and  _20
REMARK   10  A    between atoms: _25  and  _27
REMARK   11  A    between atoms: _27  and  _28
REMARK   12  A    between atoms: _27  and  _30
REMARK   13  A    between atoms: _30  and  _31
REMARK   14  A    between atoms: _34  and  _36
REMARK   15  A    between atoms: _36  and  _37
REMARK   16  A    between atoms: _36  and  _39
REMARK   17  A    between atoms: _39  and  _40
REMARK   18  A    between atoms: _43  and  _45
REMARK   19  A    between atoms: _45  and  _46
REMARK   20  A    between atoms: _45  and  _48
REMARK   21  A    between atoms: _48  and  _49
REMARK   22  A    between atoms: _49  and  _50
REMARK   23  A    between atoms: _52  and  _54
REMARK   24  A    between atoms: _54  and  _55
REMARK   25  A    between atoms: _54  and  _57
REMARK   26  A    between atoms: _57  and  _58
REMARK   27  A    between atoms: _58  and  _59
REMARK   28  A    between atoms: _62  and  _64
REMARK   29  A    between atoms: _64  and  _65
REMARK   30  A    between atoms: _64  and  _67
REMARK   31  A    between atoms: _67  and  _68
REMARK   32  A    between atoms: _71  and  _73
REMARK   33  A    between atoms: _73  and  _74
REMARK   34  A    between atoms: _73  and  _76
REMARK   35  A    between atoms: _76  and  _77
REMARK   36  A    between atoms: _80  and  _82
REMARK   37  A    between atoms: _82  and  _83
REMARK   38  A    between atoms: _82  and  _85
REMARK   39  A    between atoms: _85  and  _86
REMARK   40  A    between atoms: _88  and  _90
REMARK   41  A    between atoms: _90  and  _91
REMARK   42  A    between atoms: _90  and  _93
REMARK   43  A    between atoms: _93  and  _94
REMARK   44  A    between atoms: _99  and  _101
REMARK   45  A    between atoms: _101  and  _102
REMARK   46  A    between atoms: _101  and  _104
REMARK   47  A    between atoms: _104  and  _105
REMARK   48  A    between atoms: _107  and  _109
REMARK   49  A    between atoms: _109  and  _110
REMARK   50  A    between atoms: _109  and  _112
REMARK   51  A    between atoms: _112  and  _113
REMARK   52  A    between atoms: _115  and  _117
REMARK   53  A    between atoms: _117  and  _118
REMARK   54  A    between atoms: _117  and  _120
REMARK   55  A    between atoms: _120  and  _121
REMARK   56  A    between atoms: _124  and  _126
REMARK   57  A    between atoms: _126  and  _127
REMARK   58  A    between atoms: _130  and  _132
REMARK   59  A    between atoms: _132  and  _133
REMARK   60  A    between atoms: _132  and  _135
REMARK   61  A    between atoms: _135  and  _136
REMARK   62  A    between atoms: _139  and  _141
REMARK   63  A    between atoms: _141  and  _142
REMARK   64  A    between atoms: _141  and  _144
REMARK   65  A    between atoms: _144  and  _145
REMARK   66  A    between atoms: _148  and  _150
REMARK   67  A    between atoms: _150  and  _151
REMARK   68  A    between atoms: _150  and  _153
REMARK   69  A    between atoms: _153  and  _154
REMARK   70  A    between atoms: _154  and  _155
REMARK   71  A    between atoms: _155  and  _156
REMARK   72  A    between atoms: _156  and  _157
REMARK   73  A    between atoms: _161  and  _163
REMARK   74  A    between atoms: _163  and  _164
REMARK   75  A    between atoms: _163  and  _166
REMARK   76  A    between atoms: _166  and  _167
REMARK   77  A    between atoms: _170  and  _172
REMARK   78  A    between atoms: _172  and  _173
REMARK   79  A    between atoms: _172  and  _175
REMARK   80  A    between atoms: _175  and  _176
REMARK   81  A    between atoms: _176  and  _177
REMARK   82  A    between atoms: _180  and  _182
REMARK   83  A    between atoms: _182  and  _183
REMARK   84  A    between atoms: _182  and  _185
REMARK   85  A    between atoms: _185  and  _186
REMARK   86  A    between atoms: _189  and  _191
REMARK   87  A    between atoms: _191  and  _192
REMARK   88  A    between atoms: _191  and  _194
REMARK   89  A    between atoms: _197  and  _199
REMARK   90  A    between atoms: _199  and  _200
REMARK   91  A    between atoms: _199  and  _202
REMARK   92  A    between atoms: _202  and  _203
REMARK   93  A    between atoms: _206  and  _208
REMARK   94  A    between atoms: _208  and  _209
REMARK   95  A    between atoms: _208  and  _211
REMARK   96  A    between atoms: _211  and  _212
REMARK   97  A    between atoms: _215  and  _217
REMARK   98  A    between atoms: _217  and  _218
REMARK   99  A    between atoms: _220  and  _222
REMARK  100  A    between atoms: _222  and  _223
REMARK  101  A    between atoms: _222  and  _225
REMARK  102  A    between atoms: _225  and  _226
REMARK  103  A    between atoms: _229  and  _231
REMARK  104  A    between atoms: _231  and  _232
REMARK  105  A    between atoms: _234  and  _236
REMARK  106  A    between atoms: _236  and  _237
REMARK  107  A    between atoms: _236  and  _239
REMARK  108  A    between atoms: _239  and  _240
REMARK  109  A    between atoms: _240  and  _241
REMARK  110  A    between atoms: _243  and  _245
REMARK  111  A    between atoms: _245  and  _246
REMARK  112  A    between atoms: _245  and  _248
REMARK  113  A    between atoms: _248  and  _249
REMARK  114  A    between atoms: _252  and  _254
REMARK  115  A    between atoms: _254  and  _255
REMARK  116  A    between atoms: _254  and  _257
REMARK  117  A    between atoms: _257  and  _258
REMARK  118  A    between atoms: _258  and  _259
REMARK  119  A    between atoms: _259  and  _260
REMARK  120  A    between atoms: _260  and  _261
REMARK  121  A    between atoms: _265  and  _267
REMARK  122  A    between atoms: _267  and  _268
REMARK  123  A    between atoms: _271  and  _273
REMARK  124  A    between atoms: _273  and  _274
REMARK  125  A    between atoms: _273  and  _276
REMARK  126  A    between atoms: _276  and  _277
REMARK  127  A    between atoms: _280  and  _282
REMARK  128  A    between atoms: _282  and  _283
REMARK  129  A    between atoms: _282  and  _285
REMARK  130  A    between atoms: _285  and  _286
REMARK  131  A    between atoms: _289  and  _291
REMARK  132  A    between atoms: _291  and  _292
REMARK  133  A    between atoms: _291  and  _294
REMARK  134  A    between atoms: _294  and  _295
REMARK  135  A    between atoms: _298  and  _300
REMARK  136  A    between atoms: _300  and  _301
REMARK  137  A    between atoms: _300  and  _303
REMARK  138  A    between atoms: _303  and  _304
REMARK  139  A    between atoms: _309  and  _311
REMARK  140  A    between atoms: _311  and  _312
REMARK  141  A    between atoms: _311  and  _314
REMARK  142  A    between atoms: _314  and  _315
REMARK  143  A    between atoms: _320  and  _322
REMARK  144  A    between atoms: _322  and  _323
REMARK  145  A    between atoms: _322  and  _325
REMARK  146  A    between atoms: _325  and  _326
REMARK  147  A    between atoms: _329  and  _331
REMARK  148  A    between atoms: _331  and  _332
REMARK  149  A    between atoms: _334  and  _336
REMARK  150  A    between atoms: _336  and  _337
REMARK  151  A    between atoms: _336  and  _339
REMARK  152  A    between atoms: _339  and  _340
REMARK  153  A    between atoms: _343  and  _345
REMARK  154  A    between atoms: _345  and  _346
REMARK  155  A    between atoms: _345  and  _348
REMARK  156  A    between atoms: _348  and  _349
REMARK  157  A    between atoms: _352  and  _354
REMARK  158  A    between atoms: _354  and  _355
REMARK  159  A    between atoms: _358  and  _360
REMARK  160  A    between atoms: _360  and  _361
REMARK  161  A    between atoms: _360  and  _363
REMARK  162  A    between atoms: _363  and  _364
REMARK  163  A    between atoms: _364  and  _365
REMARK  164  A    between atoms: _365  and  _366
REMARK  165  A    between atoms: _366  and  _367
REMARK  166  A    between atoms: _371  and  _373
REMARK  167  A    between atoms: _373  and  _374
REMARK  168  A    between atoms: _373  and  _376
REMARK  169  A    between atoms: _376  and  _377
REMARK  170  A    between atoms: _380  and  _382
REMARK  171  A    between atoms: _382  and  _383
REMARK  172  A    between atoms: _382  and  _385
REMARK  173  A    between atoms: _385  and  _386
REMARK  174  A    between atoms: _392  and  _394
REMARK  175  A    between atoms: _394  and  _395
REMARK  176  A    between atoms: _397  and  _399
REMARK  177  A    between atoms: _399  and  _400
REMARK  178  A    between atoms: _399  and  _402
REMARK  179  A    between atoms: _405  and  _407
REMARK  180  A    between atoms: _407  and  _408
REMARK  181  A    between atoms: _410  and  _412
REMARK  182  A    between atoms: _412  and  _413
REMARK  183  A    between atoms: _412  and  _415
REMARK  184  A    between atoms: _415  and  _416
REMARK  185  A    between atoms: _422  and  _424
REMARK  186  A    between atoms: _424  and  _425
REMARK  187  A    between atoms: _424  and  _427
REMARK  188  A    between atoms: _427  and  _428
REMARK  189  A    between atoms: _433  and  _434
REMARK  190  A    between atoms: _436  and  _438
REMARK  191  A    between atoms: _438  and  _439
REMARK  192  A    between atoms: _438  and  _441
REMARK  193  A    between atoms: _441  and  _442
REMARK  194  A    between atoms: _444  and  _446
REMARK  195  A    between atoms: _446  and  _447
REMARK  196  A    between atoms: _446  and  _449
REMARK  197  A    between atoms: _449  and  _450
REMARK  198  A    between atoms: _455  and  _456
REMARK  199  A    between atoms: _458  and  _460
REMARK  200  A    between atoms: _460  and  _461
REMARK  201  A    between atoms: _460  and  _463
REMARK  202  A    between atoms: _466  and  _468
REMARK  203  A    between atoms: _468  and  _469
REMARK  204  A    between atoms: _468  and  _471
REMARK  205  A    between atoms: _471  and  _472
REMARK  206  A    between atoms: _475  and  _477
REMARK  207  A    between atoms: _477  and  _478
REMARK  208  A    between atoms: _477  and  _480
REMARK  209  A    between atoms: _483  and  _485
REMARK  210  A    between atoms: _485  and  _486
REMARK  211  A    between atoms: _485  and  _488
REMARK  212  A    between atoms: _488  and  _489
REMARK  213  A    between atoms: _492  and  _494
REMARK  214  A    between atoms: _494  and  _495
REMARK  215  A    between atoms: _494  and  _497
REMARK  216  A    between atoms: _497  and  _498
REMARK  217  A    between atoms: _501  and  _503
REMARK  218  A    between atoms: _503  and  _504
REMARK  219  A    between atoms: _503  and  _506
REMARK  220  A    between atoms: _506  and  _507
REMARK  221  A    between atoms: _507  and  _508
REMARK  222  A    between atoms: _508  and  _509
REMARK  223  A    between atoms: _509  and  _510
REMARK  224  A    between atoms: _514  and  _516
REMARK  225  A    between atoms: _516  and  _517
REMARK  226  A    between atoms: _516  and  _519
REMARK  227  A    between atoms: _519  and  _520
REMARK  228  A    between atoms: _525  and  _527
REMARK  229  A    between atoms: _527  and  _528
REMARK  230  A    between atoms: _527  and  _530
REMARK  231  A    between atoms: _530  and  _531
REMARK  232  A    between atoms: _541  and  _543
REMARK  233  A    between atoms: _543  and  _544
REMARK  234  A    between atoms: _543  and  _546
REMARK  235  A    between atoms: _546  and  _547
REMARK  236  A    between atoms: _547  and  _548
REMARK  237  A    between atoms: _551  and  _553
REMARK  238  A    between atoms: _553  and  _554
REMARK  239  A    between atoms: _553  and  _556
REMARK  240  A    between atoms: _556  and  _557
REMARK  241  A    between atoms: _559  and  _561
REMARK  242  A    between atoms: _561  and  _562
REMARK  243  A    between atoms: _561  and  _564
REMARK  244  A    between atoms: _564  and  _565
REMARK  245  A    between atoms: _571  and  _573
REMARK  246  A    between atoms: _573  and  _574
REMARK  247  A    between atoms: _573  and  _576
REMARK  248  A    between atoms: _576  and  _577
REMARK  249  A    between atoms: _580  and  _582
REMARK  250  A    between atoms: _582  and  _583
REMARK  251  A    between atoms: _582  and  _585
REMARK  252  A    between atoms: _588  and  _590
REMARK  253  A    between atoms: _590  and  _591
REMARK  254  A    between atoms: _593  and  _595
REMARK  255  A    between atoms: _595  and  _596
REMARK  256  A    between atoms: _595  and  _598
REMARK  257  A    between atoms: _598  and  _599
REMARK  258  A    between atoms: _602  and  _604
REMARK  259  A    between atoms: _604  and  _605
REMARK  260  A    between atoms: _604  and  _607
REMARK  261  A    between atoms: _607  and  _608
REMARK  262  A    between atoms: _608  and  _609
REMARK  263  A    between atoms: _609  and  _610
REMARK  264  A    between atoms: _610  and  _611
REMARK  265  A    between atoms: _615  and  _617
REMARK  266  A    between atoms: _617  and  _618
REMARK  267  A    between atoms: _617  and  _620
REMARK                            x       y       z     vdW  Elec       q    Type
REMARK                         _______ _______ _______ _____ _____    ______ ____
ROOT
ATOM      1  C   TRP A   1      13.448  21.338  18.157  0.00  0.00    +0.239 C 
ATOM      2  N   GLU A   2      13.178  21.758  19.405  0.00  0.00    -0.297 N 
ATOM      3  H   GLU A   2      12.284  21.505  19.873  0.00  0.00    +0.150 HD
ATOM      4  O   TRP A   1      14.475  21.648  17.570  0.00  0.00    -0.274 OA
ENDROOT
BRANCH   1   5
ATOM      5  CA  TRP A   1      12.437  20.465  17.448  0.00  0.00    +0.149 C 
BRANCH   5   6
ATOM      6  N   TRP A   1      12.530  20.888  16.060  0.00  0.00    -0.238 NA
ATOM      7  H   TRP A   1      13.410  20.668  15.551  0.00  0.00    +0.142 HD
ENDBRANCH   5   6
BRANCH   5   8
ATOM      8  CB  TRP A   1      12.771  18.973  17.573  0.00  0.00    +0.054 C 
BRANCH   8   9
ATOM      9  CG  TRP A   1      12.848  18.402  18.966  0.00  0.00    -0.002 A 
ATOM     10  CD2 TRP A   1      13.961  18.462  19.888  0.00  0.00    +0.013 A 
ATOM     11  CE2 TRP A   1      13.576  17.760  21.050  0.00  0.00    +0.056 A 
ATOM     12  CZ2 TRP A   1      14.441  17.579  22.149  0.00  0.00    +0.017 A 
ATOM     13  CH2 TRP A   1      15.689  18.166  22.085  0.00  0.00    +0.001 A 
ATOM     14  CZ3 TRP A   1      16.083  18.913  20.959  0.00  0.00    +0.000 A 
ATOM     15  NE1 TRP A   1      12.340  17.229  20.808  0.00  0.00    -0.352 N 
ATOM     16  HE1 TRP A   1      11.810  16.618  21.462  0.00  0.00    +0.166 HD
ATOM     17  CE3 TRP A   1      15.235  19.079  19.865  0.00  0.00    +0.001 A 
ATOM     18  CD1 TRP A   1      11.906  17.628  19.567  0.00  0.00    +0.068 A 
ENDBRANCH   8   9
ENDBRANCH   5   8
ENDBRANCH   1   5
BRANCH   2  19
ATOM     19  CA  GLU A   2      14.167  22.574  20.081  0.00  0.00    +0.149 C 
BRANCH  19  20
ATOM     20  C   GLU A   2      14.044  22.390  21.558  0.00  0.00    +0.241 C 
ATOM     21  N   SER A   3      15.176  22.450  22.269  0.00  0.00    -0.296 N 
ATOM     22  H   SER A   3      16.080  22.538  21.762  0.00  0.00    +0.150 HD
ATOM     23  O   GLU A   2      12.945  22.250  22.047  0.00  0.00    -0.273 OA
BRANCH  21  24
ATOM     24  CA  SER A   3      15.193  22.397  23.724  0.00  0.00    +0.166 C 
BRANCH  24  25
ATOM     25  C   SER A   3      16.515  22.969  24.251  0.00  0.00    +0.229 C 
ATOM     26  O   SER A   3      17.576  22.713  23.691  0.00  0.00    -0.286 OA
ENDBRANCH  24  25
BRANCH  24  27
ATOM     27  CB  SER A   3      14.984  20.979  24.248  0.00  0.00    +0.165 C 
BRANCH  27  28
ATOM     28  OG  SER A   3      14.935  20.994  25.665  0.00  0.00    -0.380 OA
ATOM     29  H   SER A   3      14.185  21.568  25.962  0.00  0.00    +0.211 HD
ENDBRANCH  27  28
ENDBRANCH  24  27
ENDBRANCH  21  24
ENDBRANCH  19  20
BRANCH  19  30
ATOM     30  CB  GLU A   2      13.957  24.085  19.729  0.00  0.00    +0.041 C 
BRANCH  30  31
ATOM     31  CG  GLU A   2      15.182  24.941  19.927  0.00  0.00    +0.116 C 
BRANCH  31  32
ATOM     32  CD  GLU A   2      15.052  26.329  19.339  0.00  0.00    +0.365 C 
ATOM     33  OE2 GLU A   2      14.137  27.081  19.748  0.00  0.00    -0.246 OA
ATOM     34  OE1 GLU A   2      15.878  26.667  18.467  0.00  0.00    -0.246 OA
ENDBRANCH  31  32
ENDBRANCH  30  31
ENDBRANCH  19  30
ENDBRANCH   2  19
TORSDOF 13
REMARK  Name = ../refined-set-2016/4nh7/4nh7_pocket.pdb
REMARK  267 active torsions:
REMARK  status: ('A' for Active; 'I' for Inactive)
REMARK    1  A    between atoms: _1  and  _3
REMARK    2  A    between atoms: _3  and  _4
REMARK    3  A    between atoms: _3  and  _6
REMARK    4  A    between atoms: _6  and  _7
REMARK    5  A    between atoms: _13  and  _15
REMARK    6  A    between atoms: _15  and  _16
REMARK    7  A    between atoms: _15  and  _18
REMARK    8  A    between atoms: _18  and  _19
REMARK    9  A    between atoms: _19  and  _20
REMARK   10  A    between atoms: _25  and  _27
REMARK   11  A    between atoms: _27  and  _28
REMARK   12  A    between atoms: _27  and  _30
REMARK   13  A    between atoms: _30  and  _31
REMARK   14  A    between atoms: _34  and  _36
REMARK   15  A    between atoms: _36  and  _37
REMARK   16  A    between atoms: _36  and  _39
REMARK   17  A    between atoms: _39  and  _40
REMARK   18  A    between atoms: _43  and  _45
REMARK   19  A    between atoms: _45  and  _46
REMARK   20  A    between atoms: _45  and  _48
REMARK   21  A    between atoms: _48  and  _49
REMARK   22  A    between atoms: _49  and  _50
REMARK   23  A    between atoms: _52  and  _54
REMARK   24  A    between atoms: _54  and  _55
REMARK   25  A    between atoms: _54  and  _57
REMARK   26  A    between atoms: _57  and  _58
REMARK   27  A    between atoms: _58  and  _59
REMARK   28  A    between atoms: _62  and  _64
REMARK   29  A    between atoms: _64  and  _65
REMARK   30  A    between atoms: _64  and  _67
REMARK   31  A    between atoms: _67  and  _68
REMARK   32  A    between atoms: _71  and  _73
REMARK   33  A    between atoms: _73  and  _74
REMARK   34  A    between atoms: _73  and  _76
REMARK   35  A    between atoms: _76  and  _77
REMARK   36  A    between atoms: _80  and  _82
REMARK   37  A    between atoms: _82  and  _83
REMARK   38  A    between atoms: _82  and  _85
REMARK   39  A    between atoms: _85  and  _86
REMARK   40  A    between atoms: _88  and  _90
REMARK   41  A    between atoms: _90  and  _91
REMARK   42  A    between atoms: _90  and  _93
REMARK   43  A    between atoms: _93  and  _94
REMARK   44  A    between atoms: _99  and  _101
REMARK   45  A    between atoms: _101  and  _102
REMARK   46  A    between atoms: _101  and  _104
REMARK   47  A    between atoms: _104  and  _105
REMARK   48  A    between atoms: _107  and  _109
REMARK   49  A    between atoms: _109  and  _110
REMARK   50  A    between atoms: _109  and  _112
REMARK   51  A    between atoms: _112  and  _113
REMARK   52  A    between atoms: _115  and  _117
REMARK   53  A    between atoms: _117  and  _118
REMARK   54  A    between atoms: _117  and  _120
REMARK   55  A    between atoms: _120  and  _121
REMARK   56  A    between atoms: _124  and  _126
REMARK   57  A    between atoms: _126  and  _127
REMARK   58  A    between atoms: _130  and  _132
REMARK   59  A    between atoms: _132  and  _133
REMARK   60  A    between atoms: _132  and  _135
REMARK   61  A    between atoms: _135  and  _136
REMARK   62  A    between atoms: _139  and  _141
REMARK   63  A    between atoms: _141  and  _142
REMARK   64  A    between atoms: _141  and  _144
REMARK   65  A    between atoms: _144  and  _145
REMARK   66  A    between atoms: _148  and  _150
REMARK   67  A    between atoms: _150  and  _151
REMARK   68  A    between atoms: _150  and  _153
REMARK   69  A    between atoms: _153  and  _154
REMARK   70  A    between atoms: _154  and  _155
REMARK   71  A    between atoms: _155  and  _156
REMARK   72  A    between atoms: _156  and  _157
REMARK   73  A    between atoms: _161  and  _163
REMARK   74  A    between atoms: _163  and  _164
REMARK   75  A    between atoms: _163  and  _166
REMARK   76  A    between atoms: _166  and  _167
REMARK   77  A    between atoms: _170  and  _172
REMARK   78  A    between atoms: _172  and  _173
REMARK   79  A    between atoms: _172  and  _175
REMARK   80  A    between atoms: _175  and  _176
REMARK   81  A    between atoms: _176  and  _177
REMARK   82  A    between atoms: _180  and  _182
REMARK   83  A    between atoms: _182  and  _183
REMARK   84  A    between atoms: _182  and  _185
REMARK   85  A    between atoms: _185  and  _186
REMARK   86  A    between atoms: _189  and  _191
REMARK   87  A    between atoms: _191  and  _192
REMARK   88  A    between atoms: _191  and  _194
REMARK   89  A    between atoms: _197  and  _199
REMARK   90  A    between atoms: _199  and  _200
REMARK   91  A    between atoms: _199  and  _202
REMARK   92  A    between atoms: _202  and  _203
REMARK   93  A    between atoms: _206  and  _208
REMARK   94  A    between atoms: _208  and  _209
REMARK   95  A    between atoms: _208  and  _211
REMARK   96  A    between atoms: _211  and  _212
REMARK   97  A    between atoms: _215  and  _217
REMARK   98  A    between atoms: _217  and  _218
REMARK   99  A    between atoms: _220  and  _222
REMARK  100  A    between atoms: _222  and  _223
REMARK  101  A    between atoms: _222  and  _225
REMARK  102  A    between atoms: _225  and  _226
REMARK  103  A    between atoms: _229  and  _231
REMARK  104  A    between atoms: _231  and  _232
REMARK  105  A    between atoms: _234  and  _236
REMARK  106  A    between atoms: _236  and  _237
REMARK  107  A    between atoms: _236  and  _239
REMARK  108  A    between atoms: _239  and  _240
REMARK  109  A    between atoms: _240  and  _241
REMARK  110  A    between atoms: _243  and  _245
REMARK  111  A    between atoms: _245  and  _246
REMARK  112  A    between atoms: _245  and  _248
REMARK  113  A    between atoms: _248  and  _249
REMARK  114  A    between atoms: _252  and  _254
REMARK  115  A    between atoms: _254  and  _255
REMARK  116  A    between atoms: _254  and  _257
REMARK  117  A    between atoms: _257  and  _258
REMARK  118  A    between atoms: _258  and  _259
REMARK  119  A    between atoms: _259  and  _260
REMARK  120  A    between atoms: _260  and  _261
REMARK  121  A    between atoms: _265  and  _267
REMARK  122  A    between atoms: _267  and  _268
REMARK  123  A    between atoms: _271  and  _273
REMARK  124  A    between atoms: _273  and  _274
REMARK  125  A    between atoms: _273  and  _276
REMARK  126  A    between atoms: _276  and  _277
REMARK  127  A    between atoms: _280  and  _282
REMARK  128  A    between atoms: _282  and  _283
REMARK  129  A    between atoms: _282  and  _285
REMARK  130  A    between atoms: _285  and  _286
REMARK  131  A    between atoms: _289  and  _291
REMARK  132  A    between atoms: _291  and  _292
REMARK  133  A    between atoms: _291  and  _294
REMARK  134  A    between atoms: _294  and  _295
REMARK  135  A    between atoms: _298  and  _300
REMARK  136  A    between atoms: _300  and  _301
REMARK  137  A    between atoms: _300  and  _303
REMARK  138  A    between atoms: _303  and  _304
REMARK  139  A    between atoms: _309  and  _311
REMARK  140  A    between atoms: _311  and  _312
REMARK  141  A    between atoms: _311  and  _314
REMARK  142  A    between atoms: _314  and  _315
REMARK  143  A    between atoms: _320  and  _322
REMARK  144  A    between atoms: _322  and  _323
REMARK  145  A    between atoms: _322  and  _325
REMARK  146  A    between atoms: _325  and  _326
REMARK  147  A    between atoms: _329  and  _331
REMARK  148  A    between atoms: _331  and  _332
REMARK  149  A    between atoms: _334  and  _336
REMARK  150  A    between atoms: _336  and  _337
REMARK  151  A    between atoms: _336  and  _339
REMARK  152  A    between atoms: _339  and  _340
REMARK  153  A    between atoms: _343  and  _345
REMARK  154  A    between atoms: _345  and  _346
REMARK  155  A    between atoms: _345  and  _348
REMARK  156  A    between atoms: _348  and  _349
REMARK  157  A    between atoms: _352  and  _354
REMARK  158  A    between atoms: _354  and  _355
REMARK  159  A    between atoms: _358  and  _360
REMARK  160  A    between atoms: _360  and  _361
REMARK  161  A    between atoms: _360  and  _363
REMARK  162  A    between atoms: _363  and  _364
REMARK  163  A    between atoms: _364  and  _365
REMARK  164  A    between atoms: _365  and  _366
REMARK  165  A    between atoms: _366  and  _367
REMARK  166  A    between atoms: _371  and  _373
REMARK  167  A    between atoms: _373  and  _374
REMARK  168  A    between atoms: _373  and  _376
REMARK  169  A    between atoms: _376  and  _377
REMARK  170  A    between atoms: _380  and  _382
REMARK  171  A    between atoms: _382  and  _383
REMARK  172  A    between atoms: _382  and  _385
REMARK  173  A    between atoms: _385  and  _386
REMARK  174  A    between atoms: _392  and  _394
REMARK  175  A    between atoms: _394  and  _395
REMARK  176  A    between atoms: _397  and  _399
REMARK  177  A    between atoms: _399  and  _400
REMARK  178  A    between atoms: _399  and  _402
REMARK  179  A    between atoms: _405  and  _407
REMARK  180  A    between atoms: _407  and  _408
REMARK  181  A    between atoms: _410  and  _412
REMARK  182  A    between atoms: _412  and  _413
REMARK  183  A    between atoms: _412  and  _415
REMARK  184  A    between atoms: _415  and  _416
REMARK  185  A    between atoms: _422  and  _424
REMARK  186  A    between atoms: _424  and  _425
REMARK  187  A    between atoms: _424  and  _427
REMARK  188  A    between atoms: _427  and  _428
REMARK  189  A    between atoms: _433  and  _434
REMARK  190  A    between atoms: _436  and  _438
REMARK  191  A    between atoms: _438  and  _439
REMARK  192  A    between atoms: _438  and  _441
REMARK  193  A    between atoms: _441  and  _442
REMARK  194  A    between atoms: _444  and  _446
REMARK  195  A    between atoms: _446  and  _447
REMARK  196  A    between atoms: _446  and  _449
REMARK  197  A    between atoms: _449  and  _450
REMARK  198  A    between atoms: _455  and  _456
REMARK  199  A    between atoms: _458  and  _460
REMARK  200  A    between atoms: _460  and  _461
REMARK  201  A    between atoms: _460  and  _463
REMARK  202  A    between atoms: _466  and  _468
REMARK  203  A    between atoms: _468  and  _469
REMARK  204  A    between atoms: _468  and  _471
REMARK  205  A    between atoms: _471  and  _472
REMARK  206  A    between atoms: _475  and  _477
REMARK  207  A    between atoms: _477  and  _478
REMARK  208  A    between atoms: _477  and  _480
REMARK  209  A    between atoms: _483  and  _485
REMARK  210  A    between atoms: _485  and  _486
REMARK  211  A    between atoms: _485  and  _488
REMARK  212  A    between atoms: _488  and  _489
REMARK  213  A    between atoms: _492  and  _494
REMARK  214  A    between atoms: _494  and  _495
REMARK  215  A    between atoms: _494  and  _497
REMARK  216  A    between atoms: _497  and  _498
REMARK  217  A    between atoms: _501  and  _503
REMARK  218  A    between atoms: _503  and  _504
REMARK  219  A    between atoms: _503  and  _506
REMARK  220  A    between atoms: _506  and  _507
REMARK  221  A    between atoms: _507  and  _508
REMARK  222  A    between atoms: _508  and  _509
REMARK  223  A    between atoms: _509  and  _510
REMARK  224  A    between atoms: _514  and  _516
REMARK  225  A    between atoms: _516  and  _517
REMARK  226  A    between atoms: _516  and  _519
REMARK  227  A    between atoms: _519  and  _520
REMARK  228  A    between atoms: _525  and  _527
REMARK  229  A    between atoms: _527  and  _528
REMARK  230  A    between atoms: _527  and  _530
REMARK  231  A    between atoms: _530  and  _531
REMARK  232  A    between atoms: _541  and  _543
REMARK  233  A    between atoms: _543  and  _544
REMARK  234  A    between atoms: _543  and  _546
REMARK  235  A    between atoms: _546  and  _547
REMARK  236  A    between atoms: _547  and  _548
REMARK  237  A    between atoms: _551  and  _553
REMARK  238  A    between atoms: _553  and  _554
REMARK  239  A    between atoms: _553  and  _556
REMARK  240  A    between atoms: _556  and  _557
REMARK  241  A    between atoms: _559  and  _561
REMARK  242  A    between atoms: _561  and  _562
REMARK  243  A    between atoms: _561  and  _564
REMARK  244  A    between atoms: _564  and  _565
REMARK  245  A    between atoms: _571  and  _573
REMARK  246  A    between atoms: _573  and  _574
REMARK  247  A    between atoms: _573  and  _576
REMARK  248  A    between atoms: _576  and  _577
REMARK  249  A    between atoms: _580  and  _582
REMARK  250  A    between atoms: _582  and  _583
REMARK  251  A    between atoms: _582  and  _585
REMARK  252  A    between atoms: _588  and  _590
REMARK  253  A    between atoms: _590  and  _591
REMARK  254  A    between atoms: _593  and  _595
REMARK  255  A    between atoms: _595  and  _596
REMARK  256  A    between atoms: _595  and  _598
REMARK  257  A    between atoms: _598  and  _599
REMARK  258  A    between atoms: _602  and  _604
REMARK  259  A    between atoms: _604  and  _605
REMARK  260  A    between atoms: _604  and  _607
REMARK  261  A    between atoms: _607  and  _608
REMARK  262  A    between atoms: _608  and  _609
REMARK  263  A    between atoms: _609  and  _610
REMARK  264  A    between atoms: _610  and  _611
REMARK  265  A    between atoms: _615  and  _617
REMARK  266  A    between atoms: _617  and  _618
REMARK  267  A    between atoms: _617  and  _620
REMARK                            x       y       z     vdW  Elec       q    Type
REMARK                         _______ _______ _______ _____ _____    ______ ____
ROOT
ATOM      1  CA  THR A   2       9.043  22.593  21.384  0.00  0.00    +0.176 C 
ENDROOT
BRANCH   1   4
ATOM      2  C   PHE A   1       9.780  21.576  23.446  0.00  0.00    +0.239 C 
ATOM      3  O   PHE A   1       8.632  21.488  23.872  0.00  0.00    -0.274 OA
ATOM      4  N   THR A   2      10.083  22.080  22.269  0.00  0.00    -0.295 N 
ATOM      5  H   THR A   2      11.077  22.113  21.966  0.00  0.00    +0.150 HD
BRANCH   2   6
ATOM      6  CA  PHE A   1      10.930  21.073  24.257  0.00  0.00    +0.149 C 
BRANCH   6   7
ATOM      7  N   PHE A   1      10.427  21.050  25.609  0.00  0.00    -0.238 NA
ATOM      8  H   PHE A   1       9.426  20.807  25.750  0.00  0.00    +0.142 HD
ENDBRANCH   6   7
BRANCH   6   9
ATOM      9  CB  PHE A   1      11.435  19.660  23.776  0.00  0.00    +0.053 C 
BRANCH   9  10
ATOM     10  CG  PHE A   1      10.404  18.555  23.612  0.00  0.00    -0.020 A 
ATOM     11  CD2 PHE A   1      10.059  17.733  24.691  0.00  0.00    -0.004 A 
ATOM     12  CE2 PHE A   1       9.112  16.714  24.545  0.00  0.00    -0.000 A 
ATOM     13  CZ  PHE A   1       8.505  16.497  23.303  0.00  0.00    -0.000 A 
ATOM     14  CE1 PHE A   1       8.821  17.321  22.220  0.00  0.00    -0.000 A 
ATOM     15  CD1 PHE A   1       9.748  18.362  22.384  0.00  0.00    -0.004 A 
ENDBRANCH   9  10
ENDBRANCH   6   9
ENDBRANCH   2   6
ENDBRANCH   1   4
BRANCH   1  16
ATOM     16  C   THR A   2       9.131  21.862  20.057  0.00  0.00    +0.243 C 
ATOM     17  O   THR A   2      10.230  21.419  19.693  0.00  0.00    -0.273 OA
ATOM     18  N   VAL A   3       7.992  21.788  19.323  0.00  0.00    -0.298 N 
ATOM     19  H   VAL A   3       7.121  22.187  19.727  0.00  0.00    +0.150 HD
BRANCH  18  20
ATOM     20  CA  VAL A   3       7.922  21.177  17.993  0.00  0.00    +0.137 C 
BRANCH  20  21
ATOM     21  CB  VAL A   3       7.483  19.650  17.931  0.00  0.00    +0.026 C 
ATOM     22  CG2 VAL A   3       8.394  18.748  18.777  0.00  0.00    +0.002 C 
ATOM     23  CG1 VAL A   3       7.405  19.111  16.482  0.00  0.00    +0.002 C 
ENDBRANCH  20  21
BRANCH  20  24
ATOM     24  C   VAL A   3       7.071  22.125  17.121  0.00  0.00    +0.227 C 
ATOM     25  O   VAL A   3       6.025  22.540  17.545  0.00  0.00    -0.286 OA
ENDBRANCH  20  24
ENDBRANCH  18  20
ENDBRANCH   1  16
BRANCH   1  26
ATOM     26  CB  THR A   2       9.206  24.112  21.115  0.00  0.00    +0.137 C 
ATOM     27  CG2 THR A   2       9.039  24.985  22.364  0.00  0.00    +0.034 C 
BRANCH  26  28
ATOM     28  OG1 THR A   2      10.465  24.352  20.494  0.00  0.00    -0.382 OA
ATOM     29  HG1 THR A   2      10.508  23.858  19.637  0.00  0.00    +0.210 HD
ENDBRANCH  26  28
ENDBRANCH   1  26
TORSDOF 11
REMARK  Name = ../refined-set-2016/4nh7/4nh7_pocket.pdb
REMARK  267 active torsions:
REMARK  status: ('A' for Active; 'I' for Inactive)
REMARK    1  A    between atoms: _1  and  _3
REMARK    2  A    between atoms: _3  and  _4
REMARK    3  A    between atoms: _3  and  _6
REMARK    4  A    between atoms: _6  and  _7
REMARK    5  A    between atoms: _13  and  _15
REMARK    6  A    between atoms: _15  and  _16
REMARK    7  A    between atoms: _15  and  _18
REMARK    8  A    between atoms: _18  and  _19
REMARK    9  A    between atoms: _19  and  _20
REMARK   10  A    between atoms: _25  and  _27
REMARK   11  A    between atoms: _27  and  _28
REMARK   12  A    between atoms: _27  and  _30
REMARK   13  A    between atoms: _30  and  _31
REMARK   14  A    between atoms: _34  and  _36
REMARK   15  A    between atoms: _36  and  _37
REMARK   16  A    between atoms: _36  and  _39
REMARK   17  A    between atoms: _39  and  _40
REMARK   18  A    between atoms: _43  and  _45
REMARK   19  A    between atoms: _45  and  _46
REMARK   20  A    between atoms: _45  and  _48
REMARK   21  A    between atoms: _48  and  _49
REMARK   22  A    between atoms: _49  and  _50
REMARK   23  A    between atoms: _52  and  _54
REMARK   24  A    between atoms: _54  and  _55
REMARK   25  A    between atoms: _54  and  _57
REMARK   26  A    between atoms: _57  and  _58
REMARK   27  A    between atoms: _58  and  _59
REMARK   28  A    between atoms: _62  and  _64
REMARK   29  A    between atoms: _64  and  _65
REMARK   30  A    between atoms: _64  and  _67
REMARK   31  A    between atoms: _67  and  _68
REMARK   32  A    between atoms: _71  and  _73
REMARK   33  A    between atoms: _73  and  _74
REMARK   34  A    between atoms: _73  and  _76
REMARK   35  A    between atoms: _76  and  _77
REMARK   36  A    between atoms: _80  and  _82
REMARK   37  A    between atoms: _82  and  _83
REMARK   38  A    between atoms: _82  and  _85
REMARK   39  A    between atoms: _85  and  _86
REMARK   40  A    between atoms: _88  and  _90
REMARK   41  A    between atoms: _90  and  _91
REMARK   42  A    between atoms: _90  and  _93
REMARK   43  A    between atoms: _93  and  _94
REMARK   44  A    between atoms: _99  and  _101
REMARK   45  A    between atoms: _101  and  _102
REMARK   46  A    between atoms: _101  and  _104
REMARK   47  A    between atoms: _104  and  _105
REMARK   48  A    between atoms: _107  and  _109
REMARK   49  A    between atoms: _109  and  _110
REMARK   50  A    between atoms: _109  and  _112
REMARK   51  A    between atoms: _112  and  _113
REMARK   52  A    between atoms: _115  and  _117
REMARK   53  A    between atoms: _117  and  _118
REMARK   54  A    between atoms: _117  and  _120
REMARK   55  A    between atoms: _120  and  _121
REMARK   56  A    between atoms: _124  and  _126
REMARK   57  A    between atoms: _126  and  _127
REMARK   58  A    between atoms: _130  and  _132
REMARK   59  A    between atoms: _132  and  _133
REMARK   60  A    between atoms: _132  and  _135
REMARK   61  A    between atoms: _135  and  _136
REMARK   62  A    between atoms: _139  and  _141
REMARK   63  A    between atoms: _141  and  _142
REMARK   64  A    between atoms: _141  and  _144
REMARK   65  A    between atoms: _144  and  _145
REMARK   66  A    between atoms: _148  and  _150
REMARK   67  A    between atoms: _150  and  _151
REMARK   68  A    between atoms: _150  and  _153
REMARK   69  A    between atoms: _153  and  _154
REMARK   70  A    between atoms: _154  and  _155
REMARK   71  A    between atoms: _155  and  _156
REMARK   72  A    between atoms: _156  and  _157
REMARK   73  A    between atoms: _161  and  _163
REMARK   74  A    between atoms: _163  and  _164
REMARK   75  A    between atoms: _163  and  _166
REMARK   76  A    between atoms: _166  and  _167
REMARK   77  A    between atoms: _170  and  _172
REMARK   78  A    between atoms: _172  and  _173
REMARK   79  A    between atoms: _172  and  _175
REMARK   80  A    between atoms: _175  and  _176
REMARK   81  A    between atoms: _176  and  _177
REMARK   82  A    between atoms: _180  and  _182
REMARK   83  A    between atoms: _182  and  _183
REMARK   84  A    between atoms: _182  and  _185
REMARK   85  A    between atoms: _185  and  _186
REMARK   86  A    between atoms: _189  and  _191
REMARK   87  A    between atoms: _191  and  _192
REMARK   88  A    between atoms: _191  and  _194
REMARK   89  A    between atoms: _197  and  _199
REMARK   90  A    between atoms: _199  and  _200
REMARK   91  A    between atoms: _199  and  _202
REMARK   92  A    between atoms: _202  and  _203
REMARK   93  A    between atoms: _206  and  _208
REMARK   94  A    between atoms: _208  and  _209
REMARK   95  A    between atoms: _208  and  _211
REMARK   96  A    between atoms: _211  and  _212
REMARK   97  A    between atoms: _215  and  _217
REMARK   98  A    between atoms: _217  and  _218
REMARK   99  A    between atoms: _220  and  _222
REMARK  100  A    between atoms: _222  and  _223
REMARK  101  A    between atoms: _222  and  _225
REMARK  102  A    between atoms: _225  and  _226
REMARK  103  A    between atoms: _229  and  _231
REMARK  104  A    between atoms: _231  and  _232
REMARK  105  A    between atoms: _234  and  _236
REMARK  106  A    between atoms: _236  and  _237
REMARK  107  A    between atoms: _236  and  _239
REMARK  108  A    between atoms: _239  and  _240
REMARK  109  A    between atoms: _240  and  _241
REMARK  110  A    between atoms: _243  and  _245
REMARK  111  A    between atoms: _245  and  _246
REMARK  112  A    between atoms: _245  and  _248
REMARK  113  A    between atoms: _248  and  _249
REMARK  114  A    between atoms: _252  and  _254
REMARK  115  A    between atoms: _254  and  _255
REMARK  116  A    between atoms: _254  and  _257
REMARK  117  A    between atoms: _257  and  _258
REMARK  118  A    between atoms: _258  and  _259
REMARK  119  A    between atoms: _259  and  _260
REMARK  120  A    between atoms: _260  and  _261
REMARK  121  A    between atoms: _265  and  _267
REMARK  122  A    between atoms: _267  and  _268
REMARK  123  A    between atoms: _271  and  _273
REMARK  124  A    between atoms: _273  and  _274
REMARK  125  A    between atoms: _273  and  _276
REMARK  126  A    between atoms: _276  and  _277
REMARK  127  A    between atoms: _280  and  _282
REMARK  128  A    between atoms: _282  and  _283
REMARK  129  A    between atoms: _282  and  _285
REMARK  130  A    between atoms: _285  and  _286
REMARK  131  A    between atoms: _289  and  _291
REMARK  132  A    between atoms: _291  and  _292
REMARK  133  A    between atoms: _291  and  _294
REMARK  134  A    between atoms: _294  and  _295
REMARK  135  A    between atoms: _298  and  _300
REMARK  136  A    between atoms: _300  and  _301
REMARK  137  A    between atoms: _300  and  _303
REMARK  138  A    between atoms: _303  and  _304
REMARK  139  A    between atoms: _309  and  _311
REMARK  140  A    between atoms: _311  and  _312
REMARK  141  A    between atoms: _311  and  _314
REMARK  142  A    between atoms: _314  and  _315
REMARK  143  A    between atoms: _320  and  _322
REMARK  144  A    between atoms: _322  and  _323
REMARK  145  A    between atoms: _322  and  _325
REMARK  146  A    between atoms: _325  and  _326
REMARK  147  A    between atoms: _329  and  _331
REMARK  148  A    between atoms: _331  and  _332
REMARK  149  A    between atoms: _334  and  _336
REMARK  150  A    between atoms: _336  and  _337
REMARK  151  A    between atoms: _336  and  _339
REMARK  152  A    between atoms: _339  and  _340
REMARK  153  A    between atoms: _343  and  _345
REMARK  154  A    between atoms: _345  and  _346
REMARK  155  A    between atoms: _345  and  _348
REMARK  156  A    between atoms: _348  and  _349
REMARK  157  A    between atoms: _352  and  _354
REMARK  158  A    between atoms: _354  and  _355
REMARK  159  A    between atoms: _358  and  _360
REMARK  160  A    between atoms: _360  and  _361
REMARK  161  A    between atoms: _360  and  _363
REMARK  162  A    between atoms: _363  and  _364
REMARK  163  A    between atoms: _364  and  _365
REMARK  164  A    between atoms: _365  and  _366
REMARK  165  A    between atoms: _366  and  _367
REMARK  166  A    between atoms: _371  and  _373
REMARK  167  A    between atoms: _373  and  _374
REMARK  168  A    between atoms: _373  and  _376
REMARK  169  A    between atoms: _376  and  _377
REMARK  170  A    between atoms: _380  and  _382
REMARK  171  A    between atoms: _382  and  _383
REMARK  172  A    between atoms: _382  and  _385
REMARK  173  A    between atoms: _385  and  _386
REMARK  174  A    between atoms: _392  and  _394
REMARK  175  A    between atoms: _394  and  _395
REMARK  176  A    between atoms: _397  and  _399
REMARK  177  A    between atoms: _399  and  _400
REMARK  178  A    between atoms: _399  and  _402
REMARK  179  A    between atoms: _405  and  _407
REMARK  180  A    between atoms: _407  and  _408
REMARK  181  A    between atoms: _410  and  _412
REMARK  182  A    between atoms: _412  and  _413
REMARK  183  A    between atoms: _412  and  _415
REMARK  184  A    between atoms: _415  and  _416
REMARK  185  A    between atoms: _422  and  _424
REMARK  186  A    between atoms: _424  and  _425
REMARK  187  A    between atoms: _424  and  _427
REMARK  188  A    between atoms: _427  and  _428
REMARK  189  A    between atoms: _433  and  _434
REMARK  190  A    between atoms: _436  and  _438
REMARK  191  A    between atoms: _438  and  _439
REMARK  192  A    between atoms: _438  and  _441
REMARK  193  A    between atoms: _441  and  _442
REMARK  194  A    between atoms: _444  and  _446
REMARK  195  A    between atoms: _446  and  _447
REMARK  196  A    between atoms: _446  and  _449
REMARK  197  A    between atoms: _449  and  _450
REMARK  198  A    between atoms: _455  and  _456
REMARK  199  A    between atoms: _458  and  _460
REMARK  200  A    between atoms: _460  and  _461
REMARK  201  A    between atoms: _460  and  _463
REMARK  202  A    between atoms: _466  and  _468
REMARK  203  A    between atoms: _468  and  _469
REMARK  204  A    between atoms: _468  and  _471
REMARK  205  A    between atoms: _471  and  _472
REMARK  206  A    between atoms: _475  and  _477
REMARK  207  A    between atoms: _477  and  _478
REMARK  208  A    between atoms: _477  and  _480
REMARK  209  A    between atoms: _483  and  _485
REMARK  210  A    between atoms: _485  and  _486
REMARK  211  A    between atoms: _485  and  _488
REMARK  212  A    between atoms: _488  and  _489
REMARK  213  A    between atoms: _492  and  _494
REMARK  214  A    between atoms: _494  and  _495
REMARK  215  A    between atoms: _494  and  _497
REMARK  216  A    between atoms: _497  and  _498
REMARK  217  A    between atoms: _501  and  _503
REMARK  218  A    between atoms: _503  and  _504
REMARK  219  A    between atoms: _503  and  _506
REMARK  220  A    between atoms: _506  and  _507
REMARK  221  A    between atoms: _507  and  _508
REMARK  222  A    between atoms: _508  and  _509
REMARK  223  A    between atoms: _509  and  _510
REMARK  224  A    between atoms: _514  and  _516
REMARK  225  A    between atoms: _516  and  _517
REMARK  226  A    between atoms: _516  and  _519
REMARK  227  A    between atoms: _519  and  _520
REMARK  228  A    between atoms: _525  and  _527
REMARK  229  A    between atoms: _527  and  _528
REMARK  230  A    between atoms: _527  and  _530
REMARK  231  A    between atoms: _530  and  _531
REMARK  232  A    between atoms: _541  and  _543
REMARK  233  A    between atoms: _543  and  _544
REMARK  234  A    between atoms: _543  and  _546
REMARK  235  A    between atoms: _546  and  _547
REMARK  236  A    between atoms: _547  and  _548
REMARK  237  A    between atoms: _551  and  _553
REMARK  238  A    between atoms: _553  and  _554
REMARK  239  A    between atoms: _553  and  _556
REMARK  240  A    between atoms: _556  and  _557
REMARK  241  A    between atoms: _559  and  _561
REMARK  242  A    between atoms: _561  and  _562
REMARK  243  A    between atoms: _561  and  _564
REMARK  244  A    between atoms: _564  and  _565
REMARK  245  A    between atoms: _571  and  _573
REMARK  246  A    between atoms: _573  and  _574
REMARK  247  A    between atoms: _573  and  _576
REMARK  248  A    between atoms: _576  and  _577
REMARK  249  A    between atoms: _580  and  _582
REMARK  250  A    between atoms: _582  and  _583
REMARK  251  A    between atoms: _582  and  _585
REMARK  252  A    between atoms: _588  and  _590
REMARK  253  A    between atoms: _590  and  _591
REMARK  254  A    between atoms: _593  and  _595
REMARK  255  A    between atoms: _595  and  _596
REMARK  256  A    between atoms: _595  and  _598
REMARK  257  A    between atoms: _598  and  _599
REMARK  258  A    between atoms: _602  and  _604
REMARK  259  A    between atoms: _604  and  _605
REMARK  260  A    between atoms: _604  and  _607
REMARK  261  A    between atoms: _607  and  _608
REMARK  262  A    between atoms: _608  and  _609
REMARK  263  A    between atoms: _609  and  _610
REMARK  264  A    between atoms: _610  and  _611
REMARK  265  A    between atoms: _615  and  _617
REMARK  266  A    between atoms: _617  and  _618
REMARK  267  A    between atoms: _617  and  _620
REMARK                            x       y       z     vdW  Elec       q    Type
REMARK                         _______ _______ _______ _____ _____    ______ ____
ROOT
ATOM      1  CA  LYS A   3      20.235  18.764  10.883  0.00  0.00    +0.149 C 
ENDROOT
BRANCH   1   2
ATOM      2  C   LYS A   3      20.143  18.906  12.392  0.00  0.00    +0.241 C 
ATOM      3  N   VAL A   4      21.238  18.668  13.104  0.00  0.00    -0.298 N 
ATOM      4  H   VAL A   4      22.102  18.359  12.613  0.00  0.00    +0.150 HD
ATOM      5  O   LYS A   3      19.085  19.217  12.910  0.00  0.00    -0.273 OA
BRANCH   3   6
ATOM      6  CA  VAL A   4      21.266  18.827  14.560  0.00  0.00    +0.137 C 
BRANCH   6   7
ATOM      7  CB  VAL A   4      21.782  17.557  15.286  0.00  0.00    +0.026 C 
ATOM      8  CG2 VAL A   4      21.956  17.805  16.805  0.00  0.00    +0.002 C 
ATOM      9  CG1 VAL A   4      20.882  16.355  15.001  0.00  0.00    +0.002 C 
ENDBRANCH   6   7
BRANCH   6  10
ATOM     10  C   VAL A   4      22.165  20.080  14.743  0.00  0.00    +0.227 C 
ATOM     11  O   VAL A   4      23.346  20.034  14.400  0.00  0.00    -0.286 OA
ENDBRANCH   6  10
ENDBRANCH   3   6
ENDBRANCH   1   2
BRANCH   1  13
ATOM     12  C   THR A   2      19.457  16.544  10.002  0.00  0.00    +0.243 C 
ATOM     13  N   LYS A   3      19.225  17.742  10.588  0.00  0.00    -0.297 N 
ATOM     14  H   LYS A   3      18.243  17.957  10.853  0.00  0.00    +0.150 HD
ATOM     15  O   THR A   2      20.545  16.191   9.553  0.00  0.00    -0.273 OA
BRANCH  12  16
ATOM     16  CA  THR A   2      18.264  15.608   9.906  0.00  0.00    +0.176 C 
BRANCH  16  18
ATOM     17  C   GLY A   1      17.206  14.689   7.871  0.00  0.00    +0.240 C 
ATOM     18  N   THR A   2      18.272  14.878   8.645  0.00  0.00    -0.295 N 
ATOM     19  H   THR A   2      19.177  14.475   8.327  0.00  0.00    +0.150 HD
ATOM     20  O   GLY A   1      16.099  15.168   8.120  0.00  0.00    -0.274 OA
BRANCH  17  21
ATOM     21  CA  GLY A   1      17.437  13.851   6.636  0.00  0.00    +0.169 C 
BRANCH  21  22
ATOM     22  N   GLY A   1      16.314  13.918   5.696  0.00  0.00    -0.236 NA
ATOM     23  H   GLY A   1      15.343  13.809   6.051  0.00  0.00    +0.142 HD
ENDBRANCH  21  22
ENDBRANCH  17  21
ENDBRANCH  16  18
BRANCH  16  24
ATOM     24  CB  THR A   2      18.205  14.560  11.042  0.00  0.00    +0.137 C 
ATOM     25  CG2 THR A   2      18.126  15.179  12.472  0.00  0.00    +0.034 C 
BRANCH  24  26
ATOM     26  OG1 THR A   2      17.039  13.797  10.841  0.00  0.00    -0.382 OA
ATOM     27  HG1 THR A   2      16.248  14.391  10.872  0.00  0.00    +0.210 HD
ENDBRANCH  24  26
ENDBRANCH  16  24
ENDBRANCH  12  16
ENDBRANCH   1  13
BRANCH   1  28
ATOM     28  CB  LYS A   3      19.906  20.151  10.302  0.00  0.00    +0.029 C 
BRANCH  28  29
ATOM     29  CG  LYS A   3      20.043  20.369   8.823  0.00  0.00    +0.000 C 
BRANCH  29  30
ATOM     30  CD  LYS A   3      19.939  21.884   8.574  0.00  0.00    -0.024 C 
BRANCH  30  31
ATOM     31  CE  LYS A   3      19.696  22.198   7.125  0.00  0.00    -0.086 C 
BRANCH  31  32
ATOM     32  NZ  LYS A   3      19.553  23.655   6.904  0.00  0.00    +0.380 N 
ATOM     33  HZ1 LYS A   3      18.749  24.011   7.459  0.00  0.00    -0.089 HD
ATOM     34  HZ2 LYS A   3      20.424  24.137   7.205  0.00  0.00    -0.089 HD
ATOM     35  HZ3 LYS A   3      19.386  23.836   5.894  0.00  0.00    -0.089 HD
ENDBRANCH  31  32
ENDBRANCH  30  31
ENDBRANCH  29  30
ENDBRANCH  28  29
ENDBRANCH   1  28
TORSDOF 16
REMARK  Name = ../refined-set-2016/4nh7/4nh7_pocket.pdb
REMARK  267 active torsions:
REMARK  status: ('A' for Active; 'I' for Inactive)
REMARK    1  A    between atoms: _1  and  _3
REMARK    2  A    between atoms: _3  and  _4
REMARK    3  A    between atoms: _3  and  _6
REMARK    4  A    between atoms: _6  and  _7
REMARK    5  A    between atoms: _13  and  _15
REMARK    6  A    between atoms: _15  and  _16
REMARK    7  A    between atoms: _15  and  _18
REMARK    8  A    between atoms: _18  and  _19
REMARK    9  A    between atoms: _19  and  _20
REMARK   10  A    between atoms: _25  and  _27
REMARK   11  A    between atoms: _27  and  _28
REMARK   12  A    between atoms: _27  and  _30
REMARK   13  A    between atoms: _30  and  _31
REMARK   14  A    between atoms: _34  and  _36
REMARK   15  A    between atoms: _36  and  _37
REMARK   16  A    between atoms: _36  and  _39
REMARK   17  A    between atoms: _39  and  _40
REMARK   18  A    between atoms: _43  and  _45
REMARK   19  A    between atoms: _45  and  _46
REMARK   20  A    between atoms: _45  and  _48
REMARK   21  A    between atoms: _48  and  _49
REMARK   22  A    between atoms: _49  and  _50
REMARK   23  A    between atoms: _52  and  _54
REMARK   24  A    between atoms: _54  and  _55
REMARK   25  A    between atoms: _54  and  _57
REMARK   26  A    between atoms: _57  and  _58
REMARK   27  A    between atoms: _58  and  _59
REMARK   28  A    between atoms: _62  and  _64
REMARK   29  A    between atoms: _64  and  _65
REMARK   30  A    between atoms: _64  and  _67
REMARK   31  A    between atoms: _67  and  _68
REMARK   32  A    between atoms: _71  and  _73
REMARK   33  A    between atoms: _73  and  _74
REMARK   34  A    between atoms: _73  and  _76
REMARK   35  A    between atoms: _76  and  _77
REMARK   36  A    between atoms: _80  and  _82
REMARK   37  A    between atoms: _82  and  _83
REMARK   38  A    between atoms: _82  and  _85
REMARK   39  A    between atoms: _85  and  _86
REMARK   40  A    between atoms: _88  and  _90
REMARK   41  A    between atoms: _90  and  _91
REMARK   42  A    between atoms: _90  and  _93
REMARK   43  A    between atoms: _93  and  _94
REMARK   44  A    between atoms: _99  and  _101
REMARK   45  A    between atoms: _101  and  _102
REMARK   46  A    between atoms: _101  and  _104
REMARK   47  A    between atoms: _104  and  _105
REMARK   48  A    between atoms: _107  and  _109
REMARK   49  A    between atoms: _109  and  _110
REMARK   50  A    between atoms: _109  and  _112
REMARK   51  A    between atoms: _112  and  _113
REMARK   52  A    between atoms: _115  and  _117
REMARK   53  A    between atoms: _117  and  _118
REMARK   54  A    between atoms: _117  and  _120
REMARK   55  A    between atoms: _120  and  _121
REMARK   56  A    between atoms: _124  and  _126
REMARK   57  A    between atoms: _126  and  _127
REMARK   58  A    between atoms: _130  and  _132
REMARK   59  A    between atoms: _132  and  _133
REMARK   60  A    between atoms: _132  and  _135
REMARK   61  A    between atoms: _135  and  _136
REMARK   62  A    between atoms: _139  and  _141
REMARK   63  A    between atoms: _141  and  _142
REMARK   64  A    between atoms: _141  and  _144
REMARK   65  A    between atoms: _144  and  _145
REMARK   66  A    between atoms: _148  and  _150
REMARK   67  A    between atoms: _150  and  _151
REMARK   68  A    between atoms: _150  and  _153
REMARK   69  A    between atoms: _153  and  _154
REMARK   70  A    between atoms: _154  and  _155
REMARK   71  A    between atoms: _155  and  _156
REMARK   72  A    between atoms: _156  and  _157
REMARK   73  A    between atoms: _161  and  _163
REMARK   74  A    between atoms: _163  and  _164
REMARK   75  A    between atoms: _163  and  _166
REMARK   76  A    between atoms: _166  and  _167
REMARK   77  A    between atoms: _170  and  _172
REMARK   78  A    between atoms: _172  and  _173
REMARK   79  A    between atoms: _172  and  _175
REMARK   80  A    between atoms: _175  and  _176
REMARK   81  A    between atoms: _176  and  _177
REMARK   82  A    between atoms: _180  and  _182
REMARK   83  A    between atoms: _182  and  _183
REMARK   84  A    between atoms: _182  and  _185
REMARK   85  A    between atoms: _185  and  _186
REMARK   86  A    between atoms: _189  and  _191
REMARK   87  A    between atoms: _191  and  _192
REMARK   88  A    between atoms: _191  and  _194
REMARK   89  A    between atoms: _197  and  _199
REMARK   90  A    between atoms: _199  and  _200
REMARK   91  A    between atoms: _199  and  _202
REMARK   92  A    between atoms: _202  and  _203
REMARK   93  A    between atoms: _206  and  _208
REMARK   94  A    between atoms: _208  and  _209
REMARK   95  A    between atoms: _208  and  _211
REMARK   96  A    between atoms: _211  and  _212
REMARK   97  A    between atoms: _215  and  _217
REMARK   98  A    between atoms: _217  and  _218
REMARK   99  A    between atoms: _220  and  _222
REMARK  100  A    between atoms: _222  and  _223
REMARK  101  A    between atoms: _222  and  _225
REMARK  102  A    between atoms: _225  and  _226
REMARK  103  A    between atoms: _229  and  _231
REMARK  104  A    between atoms: _231  and  _232
REMARK  105  A    between atoms: _234  and  _236
REMARK  106  A    between atoms: _236  and  _237
REMARK  107  A    between atoms: _236  and  _239
REMARK  108  A    between atoms: _239  and  _240
REMARK  109  A    between atoms: _240  and  _241
REMARK  110  A    between atoms: _243  and  _245
REMARK  111  A    between atoms: _245  and  _246
REMARK  112  A    between atoms: _245  and  _248
REMARK  113  A    between atoms: _248  and  _249
REMARK  114  A    between atoms: _252  and  _254
REMARK  115  A    between atoms: _254  and  _255
REMARK  116  A    between atoms: _254  and  _257
REMARK  117  A    between atoms: _257  and  _258
REMARK  118  A    between atoms: _258  and  _259
REMARK  119  A    between atoms: _259  and  _260
REMARK  120  A    between atoms: _260  and  _261
REMARK  121  A    between atoms: _265  and  _267
REMARK  122  A    between atoms: _267  and  _268
REMARK  123  A    between atoms: _271  and  _273
REMARK  124  A    between atoms: _273  and  _274
REMARK  125  A    between atoms: _273  and  _276
REMARK  126  A    between atoms: _276  and  _277
REMARK  127  A    between atoms: _280  and  _282
REMARK  128  A    between atoms: _282  and  _283
REMARK  129  A    between atoms: _282  and  _285
REMARK  130  A    between atoms: _285  and  _286
REMARK  131  A    between atoms: _289  and  _291
REMARK  132  A    between atoms: _291  and  _292
REMARK  133  A    between atoms: _291  and  _294
REMARK  134  A    between atoms: _294  and  _295
REMARK  135  A    between atoms: _298  and  _300
REMARK  136  A    between atoms: _300  and  _301
REMARK  137  A    between atoms: _300  and  _303
REMARK  138  A    between atoms: _303  and  _304
REMARK  139  A    between atoms: _309  and  _311
REMARK  140  A    between atoms: _311  and  _312
REMARK  141  A    between atoms: _311  and  _314
REMARK  142  A    between atoms: _314  and  _315
REMARK  143  A    between atoms: _320  and  _322
REMARK  144  A    between atoms: _322  and  _323
REMARK  145  A    between atoms: _322  and  _325
REMARK  146  A    between atoms: _325  and  _326
REMARK  147  A    between atoms: _329  and  _331
REMARK  148  A    between atoms: _331  and  _332
REMARK  149  A    between atoms: _334  and  _336
REMARK  150  A    between atoms: _336  and  _337
REMARK  151  A    between atoms: _336  and  _339
REMARK  152  A    between atoms: _339  and  _340
REMARK  153  A    between atoms: _343  and  _345
REMARK  154  A    between atoms: _345  and  _346
REMARK  155  A    between atoms: _345  and  _348
REMARK  156  A    between atoms: _348  and  _349
REMARK  157  A    between atoms: _352  and  _354
REMARK  158  A    between atoms: _354  and  _355
REMARK  159  A    between atoms: _358  and  _360
REMARK  160  A    between atoms: _360  and  _361
REMARK  161  A    between atoms: _360  and  _363
REMARK  162  A    between atoms: _363  and  _364
REMARK  163  A    between atoms: _364  and  _365
REMARK  164  A    between atoms: _365  and  _366
REMARK  165  A    between atoms: _366  and  _367
REMARK  166  A    between atoms: _371  and  _373
REMARK  167  A    between atoms: _373  and  _374
REMARK  168  A    between atoms: _373  and  _376
REMARK  169  A    between atoms: _376  and  _377
REMARK  170  A    between atoms: _380  and  _382
REMARK  171  A    between atoms: _382  and  _383
REMARK  172  A    between atoms: _382  and  _385
REMARK  173  A    between atoms: _385  and  _386
REMARK  174  A    between atoms: _392  and  _394
REMARK  175  A    between atoms: _394  and  _395
REMARK  176  A    between atoms: _397  and  _399
REMARK  177  A    between atoms: _399  and  _400
REMARK  178  A    between atoms: _399  and  _402
REMARK  179  A    between atoms: _405  and  _407
REMARK  180  A    between atoms: _407  and  _408
REMARK  181  A    between atoms: _410  and  _412
REMARK  182  A    between atoms: _412  and  _413
REMARK  183  A    between atoms: _412  and  _415
REMARK  184  A    between atoms: _415  and  _416
REMARK  185  A    between atoms: _422  and  _424
REMARK  186  A    between atoms: _424  and  _425
REMARK  187  A    between atoms: _424  and  _427
REMARK  188  A    between atoms: _427  and  _428
REMARK  189  A    between atoms: _433  and  _434
REMARK  190  A    between atoms: _436  and  _438
REMARK  191  A    between atoms: _438  and  _439
REMARK  192  A    between atoms: _438  and  _441
REMARK  193  A    between atoms: _441  and  _442
REMARK  194  A    between atoms: _444  and  _446
REMARK  195  A    between atoms: _446  and  _447
REMARK  196  A    between atoms: _446  and  _449
REMARK  197  A    between atoms: _449  and  _450
REMARK  198  A    between atoms: _455  and  _456
REMARK  199  A    between atoms: _458  and  _460
REMARK  200  A    between atoms: _460  and  _461
REMARK  201  A    between atoms: _460  and  _463
REMARK  202  A    between atoms: _466  and  _468
REMARK  203  A    between atoms: _468  and  _469
REMARK  204  A    between atoms: _468  and  _471
REMARK  205  A    between atoms: _471  and  _472
REMARK  206  A    between atoms: _475  and  _477
REMARK  207  A    between atoms: _477  and  _478
REMARK  208  A    between atoms: _477  and  _480
REMARK  209  A    between atoms: _483  and  _485
REMARK  210  A    between atoms: _485  and  _486
REMARK  211  A    between atoms: _485  and  _488
REMARK  212  A    between atoms: _488  and  _489
REMARK  213  A    between atoms: _492  and  _494
REMARK  214  A    between atoms: _494  and  _495
REMARK  215  A    between atoms: _494  and  _497
REMARK  216  A    between atoms: _497  and  _498
REMARK  217  A    between atoms: _501  and  _503
REMARK  218  A    between atoms: _503  and  _504
REMARK  219  A    between atoms: _503  and  _506
REMARK  220  A    between atoms: _506  and  _507
REMARK  221  A    between atoms: _507  and  _508
REMARK  222  A    between atoms: _508  and  _509
REMARK  223  A    between atoms: _509  and  _510
REMARK  224  A    between atoms: _514  and  _516
REMARK  225  A    between atoms: _516  and  _517
REMARK  226  A    between atoms: _516  and  _519
REMARK  227  A    between atoms: _519  and  _520
REMARK  228  A    between atoms: _525  and  _527
REMARK  229  A    between atoms: _527  and  _528
REMARK  230  A    between atoms: _527  and  _530
REMARK  231  A    between atoms: _530  and  _531
REMARK  232  A    between atoms: _541  and  _543
REMARK  233  A    between atoms: _543  and  _544
REMARK  234  A    between atoms: _543  and  _546
REMARK  235  A    between atoms: _546  and  _547
REMARK  236  A    between atoms: _547  and  _548
REMARK  237  A    between atoms: _551  and  _553
REMARK  238  A    between atoms: _553  and  _554
REMARK  239  A    between atoms: _553  and  _556
REMARK  240  A    between atoms: _556  and  _557
REMARK  241  A    between atoms: _559  and  _561
REMARK  242  A    between atoms: _561  and  _562
REMARK  243  A    between atoms: _561  and  _564
REMARK  244  A    between atoms: _564  and  _565
REMARK  245  A    between atoms: _571  and  _573
REMARK  246  A    between atoms: _573  and  _574
REMARK  247  A    between atoms: _573  and  _576
REMARK  248  A    between atoms: _576  and  _577
REMARK  249  A    between atoms: _580  and  _582
REMARK  250  A    between atoms: _582  and  _583
REMARK  251  A    between atoms: _582  and  _585
REMARK  252  A    between atoms: _588  and  _590
REMARK  253  A    between atoms: _590  and  _591
REMARK  254  A    between atoms: _593  and  _595
REMARK  255  A    between atoms: _595  and  _596
REMARK  256  A    between atoms: _595  and  _598
REMARK  257  A    between atoms: _598  and  _599
REMARK  258  A    between atoms: _602  and  _604
REMARK  259  A    between atoms: _604  and  _605
REMARK  260  A    between atoms: _604  and  _607
REMARK  261  A    between atoms: _607  and  _608
REMARK  262  A    between atoms: _608  and  _609
REMARK  263  A    between atoms: _609  and  _610
REMARK  264  A    between atoms: _610  and  _611
REMARK  265  A    between atoms: _615  and  _617
REMARK  266  A    between atoms: _617  and  _618
REMARK  267  A    between atoms: _617  and  _620
REMARK                            x       y       z     vdW  Elec       q    Type
REMARK                         _______ _______ _______ _____ _____    ______ ____
ROOT
ATOM      1  O   HOH     1      18.016  11.487   9.729  0.00  0.00    +0.000 OA
ENDROOT
TORSDOF 0
REMARK  Name = ../refined-set-2016/4nh7/4nh7_pocket.pdb
REMARK  267 active torsions:
REMARK  status: ('A' for Active; 'I' for Inactive)
REMARK    1  A    between atoms: _1  and  _3
REMARK    2  A    between atoms: _3  and  _4
REMARK    3  A    between atoms: _3  and  _6
REMARK    4  A    between atoms: _6  and  _7
REMARK    5  A    between atoms: _13  and  _15
REMARK    6  A    between atoms: _15  and  _16
REMARK    7  A    between atoms: _15  and  _18
REMARK    8  A    between atoms: _18  and  _19
REMARK    9  A    between atoms: _19  and  _20
REMARK   10  A    between atoms: _25  and  _27
REMARK   11  A    between atoms: _27  and  _28
REMARK   12  A    between atoms: _27  and  _30
REMARK   13  A    between atoms: _30  and  _31
REMARK   14  A    between atoms: _34  and  _36
REMARK   15  A    between atoms: _36  and  _37
REMARK   16  A    between atoms: _36  and  _39
REMARK   17  A    between atoms: _39  and  _40
REMARK   18  A    between atoms: _43  and  _45
REMARK   19  A    between atoms: _45  and  _46
REMARK   20  A    between atoms: _45  and  _48
REMARK   21  A    between atoms: _48  and  _49
REMARK   22  A    between atoms: _49  and  _50
REMARK   23  A    between atoms: _52  and  _54
REMARK   24  A    between atoms: _54  and  _55
REMARK   25  A    between atoms: _54  and  _57
REMARK   26  A    between atoms: _57  and  _58
REMARK   27  A    between atoms: _58  and  _59
REMARK   28  A    between atoms: _62  and  _64
REMARK   29  A    between atoms: _64  and  _65
REMARK   30  A    between atoms: _64  and  _67
REMARK   31  A    between atoms: _67  and  _68
REMARK   32  A    between atoms: _71  and  _73
REMARK   33  A    between atoms: _73  and  _74
REMARK   34  A    between atoms: _73  and  _76
REMARK   35  A    between atoms: _76  and  _77
REMARK   36  A    between atoms: _80  and  _82
REMARK   37  A    between atoms: _82  and  _83
REMARK   38  A    between atoms: _82  and  _85
REMARK   39  A    between atoms: _85  and  _86
REMARK   40  A    between atoms: _88  and  _90
REMARK   41  A    between atoms: _90  and  _91
REMARK   42  A    between atoms: _90  and  _93
REMARK   43  A    between atoms: _93  and  _94
REMARK   44  A    between atoms: _99  and  _101
REMARK   45  A    between atoms: _101  and  _102
REMARK   46  A    between atoms: _101  and  _104
REMARK   47  A    between atoms: _104  and  _105
REMARK   48  A    between atoms: _107  and  _109
REMARK   49  A    between atoms: _109  and  _110
REMARK   50  A    between atoms: _109  and  _112
REMARK   51  A    between atoms: _112  and  _113
REMARK   52  A    between atoms: _115  and  _117
REMARK   53  A    between atoms: _117  and  _118
REMARK   54  A    between atoms: _117  and  _120
REMARK   55  A    between atoms: _120  and  _121
REMARK   56  A    between atoms: _124  and  _126
REMARK   57  A    between atoms: _126  and  _127
REMARK   58  A    between atoms: _130  and  _132
REMARK   59  A    between atoms: _132  and  _133
REMARK   60  A    between atoms: _132  and  _135
REMARK   61  A    between atoms: _135  and  _136
REMARK   62  A    between atoms: _139  and  _141
REMARK   63  A    between atoms: _141  and  _142
REMARK   64  A    between atoms: _141  and  _144
REMARK   65  A    between atoms: _144  and  _145
REMARK   66  A    between atoms: _148  and  _150
REMARK   67  A    between atoms: _150  and  _151
REMARK   68  A    between atoms: _150  and  _153
REMARK   69  A    between atoms: _153  and  _154
REMARK   70  A    between atoms: _154  and  _155
REMARK   71  A    between atoms: _155  and  _156
REMARK   72  A    between atoms: _156  and  _157
REMARK   73  A    between atoms: _161  and  _163
REMARK   74  A    between atoms: _163  and  _164
REMARK   75  A    between atoms: _163  and  _166
REMARK   76  A    between atoms: _166  and  _167
REMARK   77  A    between atoms: _170  and  _172
REMARK   78  A    between atoms: _172  and  _173
REMARK   79  A    between atoms: _172  and  _175
REMARK   80  A    between atoms: _175  and  _176
REMARK   81  A    between atoms: _176  and  _177
REMARK   82  A    between atoms: _180  and  _182
REMARK   83  A    between atoms: _182  and  _183
REMARK   84  A    between atoms: _182  and  _185
REMARK   85  A    between atoms: _185  and  _186
REMARK   86  A    between atoms: _189  and  _191
REMARK   87  A    between atoms: _191  and  _192
REMARK   88  A    between atoms: _191  and  _194
REMARK   89  A    between atoms: _197  and  _199
REMARK   90  A    between atoms: _199  and  _200
REMARK   91  A    between atoms: _199  and  _202
REMARK   92  A    between atoms: _202  and  _203
REMARK   93  A    between atoms: _206  and  _208
REMARK   94  A    between atoms: _208  and  _209
REMARK   95  A    between atoms: _208  and  _211
REMARK   96  A    between atoms: _211  and  _212
REMARK   97  A    between atoms: _215  and  _217
REMARK   98  A    between atoms: _217  and  _218
REMARK   99  A    between atoms: _220  and  _222
REMARK  100  A    between atoms: _222  and  _223
REMARK  101  A    between atoms: _222  and  _225
REMARK  102  A    between atoms: _225  and  _226
REMARK  103  A    between atoms: _229  and  _231
REMARK  104  A    between atoms: _231  and  _232
REMARK  105  A    between atoms: _234  and  _236
REMARK  106  A    between atoms: _236  and  _237
REMARK  107  A    between atoms: _236  and  _239
REMARK  108  A    between atoms: _239  and  _240
REMARK  109  A    between atoms: _240  and  _241
REMARK  110  A    between atoms: _243  and  _245
REMARK  111  A    between atoms: _245  and  _246
REMARK  112  A    between atoms: _245  and  _248
REMARK  113  A    between atoms: _248  and  _249
REMARK  114  A    between atoms: _252  and  _254
REMARK  115  A    between atoms: _254  and  _255
REMARK  116  A    between atoms: _254  and  _257
REMARK  117  A    between atoms: _257  and  _258
REMARK  118  A    between atoms: _258  and  _259
REMARK  119  A    between atoms: _259  and  _260
REMARK  120  A    between atoms: _260  and  _261
REMARK  121  A    between atoms: _265  and  _267
REMARK  122  A    between atoms: _267  and  _268
REMARK  123  A    between atoms: _271  and  _273
REMARK  124  A    between atoms: _273  and  _274
REMARK  125  A    between atoms: _273  and  _276
REMARK  126  A    between atoms: _276  and  _277
REMARK  127  A    between atoms: _280  and  _282
REMARK  128  A    between atoms: _282  and  _283
REMARK  129  A    between atoms: _282  and  _285
REMARK  130  A    between atoms: _285  and  _286
REMARK  131  A    between atoms: _289  and  _291
REMARK  132  A    between atoms: _291  and  _292
REMARK  133  A    between atoms: _291  and  _294
REMARK  134  A    between atoms: _294  and  _295
REMARK  135  A    between atoms: _298  and  _300
REMARK  136  A    between atoms: _300  and  _301
REMARK  137  A    between atoms: _300  and  _303
REMARK  138  A    between atoms: _303  and  _304
REMARK  139  A    between atoms: _309  and  _311
REMARK  140  A    between atoms: _311  and  _312
REMARK  141  A    between atoms: _311  and  _314
REMARK  142  A    between atoms: _314  and  _315
REMARK  143  A    between atoms: _320  and  _322
REMARK  144  A    between atoms: _322  and  _323
REMARK  145  A    between atoms: _322  and  _325
REMARK  146  A    between atoms: _325  and  _326
REMARK  147  A    between atoms: _329  and  _331
REMARK  148  A    between atoms: _331  and  _332
REMARK  149  A    between atoms: _334  and  _336
REMARK  150  A    between atoms: _336  and  _337
REMARK  151  A    between atoms: _336  and  _339
REMARK  152  A    between atoms: _339  and  _340
REMARK  153  A    between atoms: _343  and  _345
REMARK  154  A    between atoms: _345  and  _346
REMARK  155  A    between atoms: _345  and  _348
REMARK  156  A    between atoms: _348  and  _349
REMARK  157  A    between atoms: _352  and  _354
REMARK  158  A    between atoms: _354  and  _355
REMARK  159  A    between atoms: _358  and  _360
REMARK  160  A    between atoms: _360  and  _361
REMARK  161  A    between atoms: _360  and  _363
REMARK  162  A    between atoms: _363  and  _364
REMARK  163  A    between atoms: _364  and  _365
REMARK  164  A    between atoms: _365  and  _366
REMARK  165  A    between atoms: _366  and  _367
REMARK  166  A    between atoms: _371  and  _373
REMARK  167  A    between atoms: _373  and  _374
REMARK  168  A    between atoms: _373  and  _376
REMARK  169  A    between atoms: _376  and  _377
REMARK  170  A    between atoms: _380  and  _382
REMARK  171  A    between atoms: _382  and  _383
REMARK  172  A    between atoms: _382  and  _385
REMARK  173  A    between atoms: _385  and  _386
REMARK  174  A    between atoms: _392  and  _394
REMARK  175  A    between atoms: _394  and  _395
REMARK  176  A    between atoms: _397  and  _399
REMARK  177  A    between atoms: _399  and  _400
REMARK  178  A    between atoms: _399  and  _402
REMARK  179  A    between atoms: _405  and  _407
REMARK  180  A    between atoms: _407  and  _408
REMARK  181  A    between atoms: _410  and  _412
REMARK  182  A    between atoms: _412  and  _413
REMARK  183  A    between atoms: _412  and  _415
REMARK  184  A    between atoms: _415  and  _416
REMARK  185  A    between atoms: _422  and  _424
REMARK  186  A    between atoms: _424  and  _425
REMARK  187  A    between atoms: _424  and  _427
REMARK  188  A    between atoms: _427  and  _428
REMARK  189  A    between atoms: _433  and  _434
REMARK  190  A    between atoms: _436  and  _438
REMARK  191  A    between atoms: _438  and  _439
REMARK  192  A    between atoms: _438  and  _441
REMARK  193  A    between atoms: _441  and  _442
REMARK  194  A    between atoms: _444  and  _446
REMARK  195  A    between atoms: _446  and  _447
REMARK  196  A    between atoms: _446  and  _449
REMARK  197  A    between atoms: _449  and  _450
REMARK  198  A    between atoms: _455  and  _456
REMARK  199  A    between atoms: _458  and  _460
REMARK  200  A    between atoms: _460  and  _461
REMARK  201  A    between atoms: _460  and  _463
REMARK  202  A    between atoms: _466  and  _468
REMARK  203  A    between atoms: _468  and  _469
REMARK  204  A    between atoms: _468  and  _471
REMARK  205  A    between atoms: _471  and  _472
REMARK  206  A    between atoms: _475  and  _477
REMARK  207  A    between atoms: _477  and  _478
REMARK  208  A    between atoms: _477  and  _480
REMARK  209  A    between atoms: _483  and  _485
REMARK  210  A    between atoms: _485  and  _486
REMARK  211  A    between atoms: _485  and  _488
REMARK  212  A    between atoms: _488  and  _489
REMARK  213  A    between atoms: _492  and  _494
REMARK  214  A    between atoms: _494  and  _495
REMARK  215  A    between atoms: _494  and  _497
REMARK  216  A    between atoms: _497  and  _498
REMARK  217  A    between atoms: _501  and  _503
REMARK  218  A    between atoms: _503  and  _504
REMARK  219  A    between atoms: _503  and  _506
REMARK  220  A    between atoms: _506  and  _507
REMARK  221  A    between atoms: _507  and  _508
REMARK  222  A    between atoms: _508  and  _509
REMARK  223  A    between atoms: _509  and  _510
REMARK  224  A    between atoms: _514  and  _516
REMARK  225  A    between atoms: _516  and  _517
REMARK  226  A    between atoms: _516  and  _519
REMARK  227  A    between atoms: _519  and  _520
REMARK  228  A    between atoms: _525  and  _527
REMARK  229  A    between atoms: _527  and  _528
REMARK  230  A    between atoms: _527  and  _530
REMARK  231  A    between atoms: _530  and  _531
REMARK  232  A    between atoms: _541  and  _543
REMARK  233  A    between atoms: _543  and  _544
REMARK  234  A    between atoms: _543  and  _546
REMARK  235  A    between atoms: _546  and  _547
REMARK  236  A    between atoms: _547  and  _548
REMARK  237  A    between atoms: _551  and  _553
REMARK  238  A    between atoms: _553  and  _554
REMARK  239  A    between atoms: _553  and  _556
REMARK  240  A    between atoms: _556  and  _557
REMARK  241  A    between atoms: _559  and  _561
REMARK  242  A    between atoms: _561  and  _562
REMARK  243  A    between atoms: _561  and  _564
REMARK  244  A    between atoms: _564  and  _565
REMARK  245  A    between atoms: _571  and  _573
REMARK  246  A    between atoms: _573  and  _574
REMARK  247  A    between atoms: _573  and  _576
REMARK  248  A    between atoms: _576  and  _577
REMARK  249  A    between atoms: _580  and  _582
REMARK  250  A    between atoms: _582  and  _583
REMARK  251  A    between atoms: _582  and  _585
REMARK  252  A    between atoms: _588  and  _590
REMARK  253  A    between atoms: _590  and  _591
REMARK  254  A    between atoms: _593  and  _595
REMARK  255  A    between atoms: _595  and  _596
REMARK  256  A    between atoms: _595  and  _598
REMARK  257  A    between atoms: _598  and  _599
REMARK  258  A    between atoms: _602  and  _604
REMARK  259  A    between atoms: _604  and  _605
REMARK  260  A    between atoms: _604  and  _607
REMARK  261  A    between atoms: _607  and  _608
REMARK  262  A    between atoms: _608  and  _609
REMARK  263  A    between atoms: _609  and  _610
REMARK  264  A    between atoms: _610  and  _611
REMARK  265  A    between atoms: _615  and  _617
REMARK  266  A    between atoms: _617  and  _618
REMARK  267  A    between atoms: _617  and  _620
REMARK                            x       y       z     vdW  Elec       q    Type
REMARK                         _______ _______ _______ _____ _____    ______ ____
ROOT
ATOM      1  O   HOH     1      19.715   1.680  11.452  0.00  0.00    +0.000 OA
ENDROOT
TORSDOF 0
REMARK  Name = ../refined-set-2016/4nh7/4nh7_pocket.pdb
REMARK  267 active torsions:
REMARK  status: ('A' for Active; 'I' for Inactive)
REMARK    1  A    between atoms: _1  and  _3
REMARK    2  A    between atoms: _3  and  _4
REMARK    3  A    between atoms: _3  and  _6
REMARK    4  A    between atoms: _6  and  _7
REMARK    5  A    between atoms: _13  and  _15
REMARK    6  A    between atoms: _15  and  _16
REMARK    7  A    between atoms: _15  and  _18
REMARK    8  A    between atoms: _18  and  _19
REMARK    9  A    between atoms: _19  and  _20
REMARK   10  A    between atoms: _25  and  _27
REMARK   11  A    between atoms: _27  and  _28
REMARK   12  A    between atoms: _27  and  _30
REMARK   13  A    between atoms: _30  and  _31
REMARK   14  A    between atoms: _34  and  _36
REMARK   15  A    between atoms: _36  and  _37
REMARK   16  A    between atoms: _36  and  _39
REMARK   17  A    between atoms: _39  and  _40
REMARK   18  A    between atoms: _43  and  _45
REMARK   19  A    between atoms: _45  and  _46
REMARK   20  A    between atoms: _45  and  _48
REMARK   21  A    between atoms: _48  and  _49
REMARK   22  A    between atoms: _49  and  _50
REMARK   23  A    between atoms: _52  and  _54
REMARK   24  A    between atoms: _54  and  _55
REMARK   25  A    between atoms: _54  and  _57
REMARK   26  A    between atoms: _57  and  _58
REMARK   27  A    between atoms: _58  and  _59
REMARK   28  A    between atoms: _62  and  _64
REMARK   29  A    between atoms: _64  and  _65
REMARK   30  A    between atoms: _64  and  _67
REMARK   31  A    between atoms: _67  and  _68
REMARK   32  A    between atoms: _71  and  _73
REMARK   33  A    between atoms: _73  and  _74
REMARK   34  A    between atoms: _73  and  _76
REMARK   35  A    between atoms: _76  and  _77
REMARK   36  A    between atoms: _80  and  _82
REMARK   37  A    between atoms: _82  and  _83
REMARK   38  A    between atoms: _82  and  _85
REMARK   39  A    between atoms: _85  and  _86
REMARK   40  A    between atoms: _88  and  _90
REMARK   41  A    between atoms: _90  and  _91
REMARK   42  A    between atoms: _90  and  _93
REMARK   43  A    between atoms: _93  and  _94
REMARK   44  A    between atoms: _99  and  _101
REMARK   45  A    between atoms: _101  and  _102
REMARK   46  A    between atoms: _101  and  _104
REMARK   47  A    between atoms: _104  and  _105
REMARK   48  A    between atoms: _107  and  _109
REMARK   49  A    between atoms: _109  and  _110
REMARK   50  A    between atoms: _109  and  _112
REMARK   51  A    between atoms: _112  and  _113
REMARK   52  A    between atoms: _115  and  _117
REMARK   53  A    between atoms: _117  and  _118
REMARK   54  A    between atoms: _117  and  _120
REMARK   55  A    between atoms: _120  and  _121
REMARK   56  A    between atoms: _124  and  _126
REMARK   57  A    between atoms: _126  and  _127
REMARK   58  A    between atoms: _130  and  _132
REMARK   59  A    between atoms: _132  and  _133
REMARK   60  A    between atoms: _132  and  _135
REMARK   61  A    between atoms: _135  and  _136
REMARK   62  A    between atoms: _139  and  _141
REMARK   63  A    between atoms: _141  and  _142
REMARK   64  A    between atoms: _141  and  _144
REMARK   65  A    between atoms: _144  and  _145
REMARK   66  A    between atoms: _148  and  _150
REMARK   67  A    between atoms: _150  and  _151
REMARK   68  A    between atoms: _150  and  _153
REMARK   69  A    between atoms: _153  and  _154
REMARK   70  A    between atoms: _154  and  _155
REMARK   71  A    between atoms: _155  and  _156
REMARK   72  A    between atoms: _156  and  _157
REMARK   73  A    between atoms: _161  and  _163
REMARK   74  A    between atoms: _163  and  _164
REMARK   75  A    between atoms: _163  and  _166
REMARK   76  A    between atoms: _166  and  _167
REMARK   77  A    between atoms: _170  and  _172
REMARK   78  A    between atoms: _172  and  _173
REMARK   79  A    between atoms: _172  and  _175
REMARK   80  A    between atoms: _175  and  _176
REMARK   81  A    between atoms: _176  and  _177
REMARK   82  A    between atoms: _180  and  _182
REMARK   83  A    between atoms: _182  and  _183
REMARK   84  A    between atoms: _182  and  _185
REMARK   85  A    between atoms: _185  and  _186
REMARK   86  A    between atoms: _189  and  _191
REMARK   87  A    between atoms: _191  and  _192
REMARK   88  A    between atoms: _191  and  _194
REMARK   89  A    between atoms: _197  and  _199
REMARK   90  A    between atoms: _199  and  _200
REMARK   91  A    between atoms: _199  and  _202
REMARK   92  A    between atoms: _202  and  _203
REMARK   93  A    between atoms: _206  and  _208
REMARK   94  A    between atoms: _208  and  _209
REMARK   95  A    between atoms: _208  and  _211
REMARK   96  A    between atoms: _211  and  _212
REMARK   97  A    between atoms: _215  and  _217
REMARK   98  A    between atoms: _217  and  _218
REMARK   99  A    between atoms: _220  and  _222
REMARK  100  A    between atoms: _222  and  _223
REMARK  101  A    between atoms: _222  and  _225
REMARK  102  A    between atoms: _225  and  _226
REMARK  103  A    between atoms: _229  and  _231
REMARK  104  A    between atoms: _231  and  _232
REMARK  105  A    between atoms: _234  and  _236
REMARK  106  A    between atoms: _236  and  _237
REMARK  107  A    between atoms: _236  and  _239
REMARK  108  A    between atoms: _239  and  _240
REMARK  109  A    between atoms: _240  and  _241
REMARK  110  A    between atoms: _243  and  _245
REMARK  111  A    between atoms: _245  and  _246
REMARK  112  A    between atoms: _245  and  _248
REMARK  113  A    between atoms: _248  and  _249
REMARK  114  A    between atoms: _252  and  _254
REMARK  115  A    between atoms: _254  and  _255
REMARK  116  A    between atoms: _254  and  _257
REMARK  117  A    between atoms: _257  and  _258
REMARK  118  A    between atoms: _258  and  _259
REMARK  119  A    between atoms: _259  and  _260
REMARK  120  A    between atoms: _260  and  _261
REMARK  121  A    between atoms: _265  and  _267
REMARK  122  A    between atoms: _267  and  _268
REMARK  123  A    between atoms: _271  and  _273
REMARK  124  A    between atoms: _273  and  _274
REMARK  125  A    between atoms: _273  and  _276
REMARK  126  A    between atoms: _276  and  _277
REMARK  127  A    between atoms: _280  and  _282
REMARK  128  A    between atoms: _282  and  _283
REMARK  129  A    between atoms: _282  and  _285
REMARK  130  A    between atoms: _285  and  _286
REMARK  131  A    between atoms: _289  and  _291
REMARK  132  A    between atoms: _291  and  _292
REMARK  133  A    between atoms: _291  and  _294
REMARK  134  A    between atoms: _294  and  _295
REMARK  135  A    between atoms: _298  and  _300
REMARK  136  A    between atoms: _300  and  _301
REMARK  137  A    between atoms: _300  and  _303
REMARK  138  A    between atoms: _303  and  _304
REMARK  139  A    between atoms: _309  and  _311
REMARK  140  A    between atoms: _311  and  _312
REMARK  141  A    between atoms: _311  and  _314
REMARK  142  A    between atoms: _314  and  _315
REMARK  143  A    between atoms: _320  and  _322
REMARK  144  A    between atoms: _322  and  _323
REMARK  145  A    between atoms: _322  and  _325
REMARK  146  A    between atoms: _325  and  _326
REMARK  147  A    between atoms: _329  and  _331
REMARK  148  A    between atoms: _331  and  _332
REMARK  149  A    between atoms: _334  and  _336
REMARK  150  A    between atoms: _336  and  _337
REMARK  151  A    between atoms: _336  and  _339
REMARK  152  A    between atoms: _339  and  _340
REMARK  153  A    between atoms: _343  and  _345
REMARK  154  A    between atoms: _345  and  _346
REMARK  155  A    between atoms: _345  and  _348
REMARK  156  A    between atoms: _348  and  _349
REMARK  157  A    between atoms: _352  and  _354
REMARK  158  A    between atoms: _354  and  _355
REMARK  159  A    between atoms: _358  and  _360
REMARK  160  A    between atoms: _360  and  _361
REMARK  161  A    between atoms: _360  and  _363
REMARK  162  A    between atoms: _363  and  _364
REMARK  163  A    between atoms: _364  and  _365
REMARK  164  A    between atoms: _365  and  _366
REMARK  165  A    between atoms: _366  and  _367
REMARK  166  A    between atoms: _371  and  _373
REMARK  167  A    between atoms: _373  and  _374
REMARK  168  A    between atoms: _373  and  _376
REMARK  169  A    between atoms: _376  and  _377
REMARK  170  A    between atoms: _380  and  _382
REMARK  171  A    between atoms: _382  and  _383
REMARK  172  A    between atoms: _382  and  _385
REMARK  173  A    between atoms: _385  and  _386
REMARK  174  A    between atoms: _392  and  _394
REMARK  175  A    between atoms: _394  and  _395
REMARK  176  A    between atoms: _397  and  _399
REMARK  177  A    between atoms: _399  and  _400
REMARK  178  A    between atoms: _399  and  _402
REMARK  179  A    between atoms: _405  and  _407
REMARK  180  A    between atoms: _407  and  _408
REMARK  181  A    between atoms: _410  and  _412
REMARK  182  A    between atoms: _412  and  _413
REMARK  183  A    between atoms: _412  and  _415
REMARK  184  A    between atoms: _415  and  _416
REMARK  185  A    between atoms: _422  and  _424
REMARK  186  A    between atoms: _424  and  _425
REMARK  187  A    between atoms: _424  and  _427
REMARK  188  A    between atoms: _427  and  _428
REMARK  189  A    between atoms: _433  and  _434
REMARK  190  A    between atoms: _436  and  _438
REMARK  191  A    between atoms: _438  and  _439
REMARK  192  A    between atoms: _438  and  _441
REMARK  193  A    between atoms: _441  and  _442
REMARK  194  A    between atoms: _444  and  _446
REMARK  195  A    between atoms: _446  and  _447
REMARK  196  A    between atoms: _446  and  _449
REMARK  197  A    between atoms: _449  and  _450
REMARK  198  A    between atoms: _455  and  _456
REMARK  199  A    between atoms: _458  and  _460
REMARK  200  A    between atoms: _460  and  _461
REMARK  201  A    between atoms: _460  and  _463
REMARK  202  A    between atoms: _466  and  _468
REMARK  203  A    between atoms: _468  and  _469
REMARK  204  A    between atoms: _468  and  _471
REMARK  205  A    between atoms: _471  and  _472
REMARK  206  A    between atoms: _475  and  _477
REMARK  207  A    between atoms: _477  and  _478
REMARK  208  A    between atoms: _477  and  _480
REMARK  209  A    between atoms: _483  and  _485
REMARK  210  A    between atoms: _485  and  _486
REMARK  211  A    between atoms: _485  and  _488
REMARK  212  A    between atoms: _488  and  _489
REMARK  213  A    between atoms: _492  and  _494
REMARK  214  A    between atoms: _494  and  _495
REMARK  215  A    between atoms: _494  and  _497
REMARK  216  A    between atoms: _497  and  _498
REMARK  217  A    between atoms: _501  and  _503
REMARK  218  A    between atoms: _503  and  _504
REMARK  219  A    between atoms: _503  and  _506
REMARK  220  A    between atoms: _506  and  _507
REMARK  221  A    between atoms: _507  and  _508
REMARK  222  A    between atoms: _508  and  _509
REMARK  223  A    between atoms: _509  and  _510
REMARK  224  A    between atoms: _514  and  _516
REMARK  225  A    between atoms: _516  and  _517
REMARK  226  A    between atoms: _516  and  _519
REMARK  227  A    between atoms: _519  and  _520
REMARK  228  A    between atoms: _525  and  _527
REMARK  229  A    between atoms: _527  and  _528
REMARK  230  A    between atoms: _527  and  _530
REMARK  231  A    between atoms: _530  and  _531
REMARK  232  A    between atoms: _541  and  _543
REMARK  233  A    between atoms: _543  and  _544
REMARK  234  A    between atoms: _543  and  _546
REMARK  235  A    between atoms: _546  and  _547
REMARK  236  A    between atoms: _547  and  _548
REMARK  237  A    between atoms: _551  and  _553
REMARK  238  A    between atoms: _553  and  _554
REMARK  239  A    between atoms: _553  and  _556
REMARK  240  A    between atoms: _556  and  _557
REMARK  241  A    between atoms: _559  and  _561
REMARK  242  A    between atoms: _561  and  _562
REMARK  243  A    between atoms: _561  and  _564
REMARK  244  A    between atoms: _564  and  _565
REMARK  245  A    between atoms: _571  and  _573
REMARK  246  A    between atoms: _573  and  _574
REMARK  247  A    between atoms: _573  and  _576
REMARK  248  A    between atoms: _576  and  _577
REMARK  249  A    between atoms: _580  and  _582
REMARK  250  A    between atoms: _582  and  _583
REMARK  251  A    between atoms: _582  and  _585
REMARK  252  A    between atoms: _588  and  _590
REMARK  253  A    between atoms: _590  and  _591
REMARK  254  A    between atoms: _593  and  _595
REMARK  255  A    between atoms: _595  and  _596
REMARK  256  A    between atoms: _595  and  _598
REMARK  257  A    between atoms: _598  and  _599
REMARK  258  A    between atoms: _602  and  _604
REMARK  259  A    between atoms: _604  and  _605
REMARK  260  A    between atoms: _604  and  _607
REMARK  261  A    between atoms: _607  and  _608
REMARK  262  A    between atoms: _608  and  _609
REMARK  263  A    between atoms: _609  and  _610
REMARK  264  A    between atoms: _610  and  _611
REMARK  265  A    between atoms: _615  and  _617
REMARK  266  A    between atoms: _617  and  _618
REMARK  267  A    between atoms: _617  and  _620
REMARK                            x       y       z     vdW  Elec       q    Type
REMARK                         _______ _______ _______ _____ _____    ______ ____
ROOT
ATOM      1  O   HOH     1      14.482   5.421  20.788  0.00  0.00    +0.000 OA
ENDROOT
TORSDOF 0
REMARK  Name = ../refined-set-2016/4nh7/4nh7_pocket.pdb
REMARK  267 active torsions:
REMARK  status: ('A' for Active; 'I' for Inactive)
REMARK    1  A    between atoms: _1  and  _3
REMARK    2  A    between atoms: _3  and  _4
REMARK    3  A    between atoms: _3  and  _6
REMARK    4  A    between atoms: _6  and  _7
REMARK    5  A    between atoms: _13  and  _15
REMARK    6  A    between atoms: _15  and  _16
REMARK    7  A    between atoms: _15  and  _18
REMARK    8  A    between atoms: _18  and  _19
REMARK    9  A    between atoms: _19  and  _20
REMARK   10  A    between atoms: _25  and  _27
REMARK   11  A    between atoms: _27  and  _28
REMARK   12  A    between atoms: _27  and  _30
REMARK   13  A    between atoms: _30  and  _31
REMARK   14  A    between atoms: _34  and  _36
REMARK   15  A    between atoms: _36  and  _37
REMARK   16  A    between atoms: _36  and  _39
REMARK   17  A    between atoms: _39  and  _40
REMARK   18  A    between atoms: _43  and  _45
REMARK   19  A    between atoms: _45  and  _46
REMARK   20  A    between atoms: _45  and  _48
REMARK   21  A    between atoms: _48  and  _49
REMARK   22  A    between atoms: _49  and  _50
REMARK   23  A    between atoms: _52  and  _54
REMARK   24  A    between atoms: _54  and  _55
REMARK   25  A    between atoms: _54  and  _57
REMARK   26  A    between atoms: _57  and  _58
REMARK   27  A    between atoms: _58  and  _59
REMARK   28  A    between atoms: _62  and  _64
REMARK   29  A    between atoms: _64  and  _65
REMARK   30  A    between atoms: _64  and  _67
REMARK   31  A    between atoms: _67  and  _68
REMARK   32  A    between atoms: _71  and  _73
REMARK   33  A    between atoms: _73  and  _74
REMARK   34  A    between atoms: _73  and  _76
REMARK   35  A    between atoms: _76  and  _77
REMARK   36  A    between atoms: _80  and  _82
REMARK   37  A    between atoms: _82  and  _83
REMARK   38  A    between atoms: _82  and  _85
REMARK   39  A    between atoms: _85  and  _86
REMARK   40  A    between atoms: _88  and  _90
REMARK   41  A    between atoms: _90  and  _91
REMARK   42  A    between atoms: _90  and  _93
REMARK   43  A    between atoms: _93  and  _94
REMARK   44  A    between atoms: _99  and  _101
REMARK   45  A    between atoms: _101  and  _102
REMARK   46  A    between atoms: _101  and  _104
REMARK   47  A    between atoms: _104  and  _105
REMARK   48  A    between atoms: _107  and  _109
REMARK   49  A    between atoms: _109  and  _110
REMARK   50  A    between atoms: _109  and  _112
REMARK   51  A    between atoms: _112  and  _113
REMARK   52  A    between atoms: _115  and  _117
REMARK   53  A    between atoms: _117  and  _118
REMARK   54  A    between atoms: _117  and  _120
REMARK   55  A    between atoms: _120  and  _121
REMARK   56  A    between atoms: _124  and  _126
REMARK   57  A    between atoms: _126  and  _127
REMARK   58  A    between atoms: _130  and  _132
REMARK   59  A    between atoms: _132  and  _133
REMARK   60  A    between atoms: _132  and  _135
REMARK   61  A    between atoms: _135  and  _136
REMARK   62  A    between atoms: _139  and  _141
REMARK   63  A    between atoms: _141  and  _142
REMARK   64  A    between atoms: _141  and  _144
REMARK   65  A    between atoms: _144  and  _145
REMARK   66  A    between atoms: _148  and  _150
REMARK   67  A    between atoms: _150  and  _151
REMARK   68  A    between atoms: _150  and  _153
REMARK   69  A    between atoms: _153  and  _154
REMARK   70  A    between atoms: _154  and  _155
REMARK   71  A    between atoms: _155  and  _156
REMARK   72  A    between atoms: _156  and  _157
REMARK   73  A    between atoms: _161  and  _163
REMARK   74  A    between atoms: _163  and  _164
REMARK   75  A    between atoms: _163  and  _166
REMARK   76  A    between atoms: _166  and  _167
REMARK   77  A    between atoms: _170  and  _172
REMARK   78  A    between atoms: _172  and  _173
REMARK   79  A    between atoms: _172  and  _175
REMARK   80  A    between atoms: _175  and  _176
REMARK   81  A    between atoms: _176  and  _177
REMARK   82  A    between atoms: _180  and  _182
REMARK   83  A    between atoms: _182  and  _183
REMARK   84  A    between atoms: _182  and  _185
REMARK   85  A    between atoms: _185  and  _186
REMARK   86  A    between atoms: _189  and  _191
REMARK   87  A    between atoms: _191  and  _192
REMARK   88  A    between atoms: _191  and  _194
REMARK   89  A    between atoms: _197  and  _199
REMARK   90  A    between atoms: _199  and  _200
REMARK   91  A    between atoms: _199  and  _202
REMARK   92  A    between atoms: _202  and  _203
REMARK   93  A    between atoms: _206  and  _208
REMARK   94  A    between atoms: _208  and  _209
REMARK   95  A    between atoms: _208  and  _211
REMARK   96  A    between atoms: _211  and  _212
REMARK   97  A    between atoms: _215  and  _217
REMARK   98  A    between atoms: _217  and  _218
REMARK   99  A    between atoms: _220  and  _222
REMARK  100  A    between atoms: _222  and  _223
REMARK  101  A    between atoms: _222  and  _225
REMARK  102  A    between atoms: _225  and  _226
REMARK  103  A    between atoms: _229  and  _231
REMARK  104  A    between atoms: _231  and  _232
REMARK  105  A    between atoms: _234  and  _236
REMARK  106  A    between atoms: _236  and  _237
REMARK  107  A    between atoms: _236  and  _239
REMARK  108  A    between atoms: _239  and  _240
REMARK  109  A    between atoms: _240  and  _241
REMARK  110  A    between atoms: _243  and  _245
REMARK  111  A    between atoms: _245  and  _246
REMARK  112  A    between atoms: _245  and  _248
REMARK  113  A    between atoms: _248  and  _249
REMARK  114  A    between atoms: _252  and  _254
REMARK  115  A    between atoms: _254  and  _255
REMARK  116  A    between atoms: _254  and  _257
REMARK  117  A    between atoms: _257  and  _258
REMARK  118  A    between atoms: _258  and  _259
REMARK  119  A    between atoms: _259  and  _260
REMARK  120  A    between atoms: _260  and  _261
REMARK  121  A    between atoms: _265  and  _267
REMARK  122  A    between atoms: _267  and  _268
REMARK  123  A    between atoms: _271  and  _273
REMARK  124  A    between atoms: _273  and  _274
REMARK  125  A    between atoms: _273  and  _276
REMARK  126  A    between atoms: _276  and  _277
REMARK  127  A    between atoms: _280  and  _282
REMARK  128  A    between atoms: _282  and  _283
REMARK  129  A    between atoms: _282  and  _285
REMARK  130  A    between atoms: _285  and  _286
REMARK  131  A    between atoms: _289  and  _291
REMARK  132  A    between atoms: _291  and  _292
REMARK  133  A    between atoms: _291  and  _294
REMARK  134  A    between atoms: _294  and  _295
REMARK  135  A    between atoms: _298  and  _300
REMARK  136  A    between atoms: _300  and  _301
REMARK  137  A    between atoms: _300  and  _303
REMARK  138  A    between atoms: _303  and  _304
REMARK  139  A    between atoms: _309  and  _311
REMARK  140  A    between atoms: _311  and  _312
REMARK  141  A    between atoms: _311  and  _314
REMARK  142  A    between atoms: _314  and  _315
REMARK  143  A    between atoms: _320  and  _322
REMARK  144  A    between atoms: _322  and  _323
REMARK  145  A    between atoms: _322  and  _325
REMARK  146  A    between atoms: _325  and  _326
REMARK  147  A    between atoms: _329  and  _331
REMARK  148  A    between atoms: _331  and  _332
REMARK  149  A    between atoms: _334  and  _336
REMARK  150  A    between atoms: _336  and  _337
REMARK  151  A    between atoms: _336  and  _339
REMARK  152  A    between atoms: _339  and  _340
REMARK  153  A    between atoms: _343  and  _345
REMARK  154  A    between atoms: _345  and  _346
REMARK  155  A    between atoms: _345  and  _348
REMARK  156  A    between atoms: _348  and  _349
REMARK  157  A    between atoms: _352  and  _354
REMARK  158  A    between atoms: _354  and  _355
REMARK  159  A    between atoms: _358  and  _360
REMARK  160  A    between atoms: _360  and  _361
REMARK  161  A    between atoms: _360  and  _363
REMARK  162  A    between atoms: _363  and  _364
REMARK  163  A    between atoms: _364  and  _365
REMARK  164  A    between atoms: _365  and  _366
REMARK  165  A    between atoms: _366  and  _367
REMARK  166  A    between atoms: _371  and  _373
REMARK  167  A    between atoms: _373  and  _374
REMARK  168  A    between atoms: _373  and  _376
REMARK  169  A    between atoms: _376  and  _377
REMARK  170  A    between atoms: _380  and  _382
REMARK  171  A    between atoms: _382  and  _383
REMARK  172  A    between atoms: _382  and  _385
REMARK  173  A    between atoms: _385  and  _386
REMARK  174  A    between atoms: _392  and  _394
REMARK  175  A    between atoms: _394  and  _395
REMARK  176  A    between atoms: _397  and  _399
REMARK  177  A    between atoms: _399  and  _400
REMARK  178  A    between atoms: _399  and  _402
REMARK  179  A    between atoms: _405  and  _407
REMARK  180  A    between atoms: _407  and  _408
REMARK  181  A    between atoms: _410  and  _412
REMARK  182  A    between atoms: _412  and  _413
REMARK  183  A    between atoms: _412  and  _415
REMARK  184  A    between atoms: _415  and  _416
REMARK  185  A    between atoms: _422  and  _424
REMARK  186  A    between atoms: _424  and  _425
REMARK  187  A    between atoms: _424  and  _427
REMARK  188  A    between atoms: _427  and  _428
REMARK  189  A    between atoms: _433  and  _434
REMARK  190  A    between atoms: _436  and  _438
REMARK  191  A    between atoms: _438  and  _439
REMARK  192  A    between atoms: _438  and  _441
REMARK  193  A    between atoms: _441  and  _442
REMARK  194  A    between atoms: _444  and  _446
REMARK  195  A    between atoms: _446  and  _447
REMARK  196  A    between atoms: _446  and  _449
REMARK  197  A    between atoms: _449  and  _450
REMARK  198  A    between atoms: _455  and  _456
REMARK  199  A    between atoms: _458  and  _460
REMARK  200  A    between atoms: _460  and  _461
REMARK  201  A    between atoms: _460  and  _463
REMARK  202  A    between atoms: _466  and  _468
REMARK  203  A    between atoms: _468  and  _469
REMARK  204  A    between atoms: _468  and  _471
REMARK  205  A    between atoms: _471  and  _472
REMARK  206  A    between atoms: _475  and  _477
REMARK  207  A    between atoms: _477  and  _478
REMARK  208  A    between atoms: _477  and  _480
REMARK  209  A    between atoms: _483  and  _485
REMARK  210  A    between atoms: _485  and  _486
REMARK  211  A    between atoms: _485  and  _488
REMARK  212  A    between atoms: _488  and  _489
REMARK  213  A    between atoms: _492  and  _494
REMARK  214  A    between atoms: _494  and  _495
REMARK  215  A    between atoms: _494  and  _497
REMARK  216  A    between atoms: _497  and  _498
REMARK  217  A    between atoms: _501  and  _503
REMARK  218  A    between atoms: _503  and  _504
REMARK  219  A    between atoms: _503  and  _506
REMARK  220  A    between atoms: _506  and  _507
REMARK  221  A    between atoms: _507  and  _508
REMARK  222  A    between atoms: _508  and  _509
REMARK  223  A    between atoms: _509  and  _510
REMARK  224  A    between atoms: _514  and  _516
REMARK  225  A    between atoms: _516  and  _517
REMARK  226  A    between atoms: _516  and  _519
REMARK  227  A    between atoms: _519  and  _520
REMARK  228  A    between atoms: _525  and  _527
REMARK  229  A    between atoms: _527  and  _528
REMARK  230  A    between atoms: _527  and  _530
REMARK  231  A    between atoms: _530  and  _531
REMARK  232  A    between atoms: _541  and  _543
REMARK  233  A    between atoms: _543  and  _544
REMARK  234  A    between atoms: _543  and  _546
REMARK  235  A    between atoms: _546  and  _547
REMARK  236  A    between atoms: _547  and  _548
REMARK  237  A    between atoms: _551  and  _553
REMARK  238  A    between atoms: _553  and  _554
REMARK  239  A    between atoms: _553  and  _556
REMARK  240  A    between atoms: _556  and  _557
REMARK  241  A    between atoms: _559  and  _561
REMARK  242  A    between atoms: _561  and  _562
REMARK  243  A    between atoms: _561  and  _564
REMARK  244  A    between atoms: _564  and  _565
REMARK  245  A    between atoms: _571  and  _573
REMARK  246  A    between atoms: _573  and  _574
REMARK  247  A    between atoms: _573  and  _576
REMARK  248  A    between atoms: _576  and  _577
REMARK  249  A    between atoms: _580  and  _582
REMARK  250  A    between atoms: _582  and  _583
REMARK  251  A    between atoms: _582  and  _585
REMARK  252  A    between atoms: _588  and  _590
REMARK  253  A    between atoms: _590  and  _591
REMARK  254  A    between atoms: _593  and  _595
REMARK  255  A    between atoms: _595  and  _596
REMARK  256  A    between atoms: _595  and  _598
REMARK  257  A    between atoms: _598  and  _599
REMARK  258  A    between atoms: _602  and  _604
REMARK  259  A    between atoms: _604  and  _605
REMARK  260  A    between atoms: _604  and  _607
REMARK  261  A    between atoms: _607  and  _608
REMARK  262  A    between atoms: _608  and  _609
REMARK  263  A    between atoms: _609  and  _610
REMARK  264  A    between atoms: _610  and  _611
REMARK  265  A    between atoms: _615  and  _617
REMARK  266  A    between atoms: _617  and  _618
REMARK  267  A    between atoms: _617  and  _620
REMARK                            x       y       z     vdW  Elec       q    Type
REMARK                         _______ _______ _______ _____ _____    ______ ____
ROOT
ATOM      1  O   HOH     1      22.671   6.361  20.984  0.00  0.00    +0.000 OA
ENDROOT
TORSDOF 0
REMARK  Name = ../refined-set-2016/4nh7/4nh7_pocket.pdb
REMARK  267 active torsions:
REMARK  status: ('A' for Active; 'I' for Inactive)
REMARK    1  A    between atoms: _1  and  _3
REMARK    2  A    between atoms: _3  and  _4
REMARK    3  A    between atoms: _3  and  _6
REMARK    4  A    between atoms: _6  and  _7
REMARK    5  A    between atoms: _13  and  _15
REMARK    6  A    between atoms: _15  and  _16
REMARK    7  A    between atoms: _15  and  _18
REMARK    8  A    between atoms: _18  and  _19
REMARK    9  A    between atoms: _19  and  _20
REMARK   10  A    between atoms: _25  and  _27
REMARK   11  A    between atoms: _27  and  _28
REMARK   12  A    between atoms: _27  and  _30
REMARK   13  A    between atoms: _30  and  _31
REMARK   14  A    between atoms: _34  and  _36
REMARK   15  A    between atoms: _36  and  _37
REMARK   16  A    between atoms: _36  and  _39
REMARK   17  A    between atoms: _39  and  _40
REMARK   18  A    between atoms: _43  and  _45
REMARK   19  A    between atoms: _45  and  _46
REMARK   20  A    between atoms: _45  and  _48
REMARK   21  A    between atoms: _48  and  _49
REMARK   22  A    between atoms: _49  and  _50
REMARK   23  A    between atoms: _52  and  _54
REMARK   24  A    between atoms: _54  and  _55
REMARK   25  A    between atoms: _54  and  _57
REMARK   26  A    between atoms: _57  and  _58
REMARK   27  A    between atoms: _58  and  _59
REMARK   28  A    between atoms: _62  and  _64
REMARK   29  A    between atoms: _64  and  _65
REMARK   30  A    between atoms: _64  and  _67
REMARK   31  A    between atoms: _67  and  _68
REMARK   32  A    between atoms: _71  and  _73
REMARK   33  A    between atoms: _73  and  _74
REMARK   34  A    between atoms: _73  and  _76
REMARK   35  A    between atoms: _76  and  _77
REMARK   36  A    between atoms: _80  and  _82
REMARK   37  A    between atoms: _82  and  _83
REMARK   38  A    between atoms: _82  and  _85
REMARK   39  A    between atoms: _85  and  _86
REMARK   40  A    between atoms: _88  and  _90
REMARK   41  A    between atoms: _90  and  _91
REMARK   42  A    between atoms: _90  and  _93
REMARK   43  A    between atoms: _93  and  _94
REMARK   44  A    between atoms: _99  and  _101
REMARK   45  A    between atoms: _101  and  _102
REMARK   46  A    between atoms: _101  and  _104
REMARK   47  A    between atoms: _104  and  _105
REMARK   48  A    between atoms: _107  and  _109
REMARK   49  A    between atoms: _109  and  _110
REMARK   50  A    between atoms: _109  and  _112
REMARK   51  A    between atoms: _112  and  _113
REMARK   52  A    between atoms: _115  and  _117
REMARK   53  A    between atoms: _117  and  _118
REMARK   54  A    between atoms: _117  and  _120
REMARK   55  A    between atoms: _120  and  _121
REMARK   56  A    between atoms: _124  and  _126
REMARK   57  A    between atoms: _126  and  _127
REMARK   58  A    between atoms: _130  and  _132
REMARK   59  A    between atoms: _132  and  _133
REMARK   60  A    between atoms: _132  and  _135
REMARK   61  A    between atoms: _135  and  _136
REMARK   62  A    between atoms: _139  and  _141
REMARK   63  A    between atoms: _141  and  _142
REMARK   64  A    between atoms: _141  and  _144
REMARK   65  A    between atoms: _144  and  _145
REMARK   66  A    between atoms: _148  and  _150
REMARK   67  A    between atoms: _150  and  _151
REMARK   68  A    between atoms: _150  and  _153
REMARK   69  A    between atoms: _153  and  _154
REMARK   70  A    between atoms: _154  and  _155
REMARK   71  A    between atoms: _155  and  _156
REMARK   72  A    between atoms: _156  and  _157
REMARK   73  A    between atoms: _161  and  _163
REMARK   74  A    between atoms: _163  and  _164
REMARK   75  A    between atoms: _163  and  _166
REMARK   76  A    between atoms: _166  and  _167
REMARK   77  A    between atoms: _170  and  _172
REMARK   78  A    between atoms: _172  and  _173
REMARK   79  A    between atoms: _172  and  _175
REMARK   80  A    between atoms: _175  and  _176
REMARK   81  A    between atoms: _176  and  _177
REMARK   82  A    between atoms: _180  and  _182
REMARK   83  A    between atoms: _182  and  _183
REMARK   84  A    between atoms: _182  and  _185
REMARK   85  A    between atoms: _185  and  _186
REMARK   86  A    between atoms: _189  and  _191
REMARK   87  A    between atoms: _191  and  _192
REMARK   88  A    between atoms: _191  and  _194
REMARK   89  A    between atoms: _197  and  _199
REMARK   90  A    between atoms: _199  and  _200
REMARK   91  A    between atoms: _199  and  _202
REMARK   92  A    between atoms: _202  and  _203
REMARK   93  A    between atoms: _206  and  _208
REMARK   94  A    between atoms: _208  and  _209
REMARK   95  A    between atoms: _208  and  _211
REMARK   96  A    between atoms: _211  and  _212
REMARK   97  A    between atoms: _215  and  _217
REMARK   98  A    between atoms: _217  and  _218
REMARK   99  A    between atoms: _220  and  _222
REMARK  100  A    between atoms: _222  and  _223
REMARK  101  A    between atoms: _222  and  _225
REMARK  102  A    between atoms: _225  and  _226
REMARK  103  A    between atoms: _229  and  _231
REMARK  104  A    between atoms: _231  and  _232
REMARK  105  A    between atoms: _234  and  _236
REMARK  106  A    between atoms: _236  and  _237
REMARK  107  A    between atoms: _236  and  _239
REMARK  108  A    between atoms: _239  and  _240
REMARK  109  A    between atoms: _240  and  _241
REMARK  110  A    between atoms: _243  and  _245
REMARK  111  A    between atoms: _245  and  _246
REMARK  112  A    between atoms: _245  and  _248
REMARK  113  A    between atoms: _248  and  _249
REMARK  114  A    between atoms: _252  and  _254
REMARK  115  A    between atoms: _254  and  _255
REMARK  116  A    between atoms: _254  and  _257
REMARK  117  A    between atoms: _257  and  _258
REMARK  118  A    between atoms: _258  and  _259
REMARK  119  A    between atoms: _259  and  _260
REMARK  120  A    between atoms: _260  and  _261
REMARK  121  A    between atoms: _265  and  _267
REMARK  122  A    between atoms: _267  and  _268
REMARK  123  A    between atoms: _271  and  _273
REMARK  124  A    between atoms: _273  and  _274
REMARK  125  A    between atoms: _273  and  _276
REMARK  126  A    between atoms: _276  and  _277
REMARK  127  A    between atoms: _280  and  _282
REMARK  128  A    between atoms: _282  and  _283
REMARK  129  A    between atoms: _282  and  _285
REMARK  130  A    between atoms: _285  and  _286
REMARK  131  A    between atoms: _289  and  _291
REMARK  132  A    between atoms: _291  and  _292
REMARK  133  A    between atoms: _291  and  _294
REMARK  134  A    between atoms: _294  and  _295
REMARK  135  A    between atoms: _298  and  _300
REMARK  136  A    between atoms: _300  and  _301
REMARK  137  A    between atoms: _300  and  _303
REMARK  138  A    between atoms: _303  and  _304
REMARK  139  A    between atoms: _309  and  _311
REMARK  140  A    between atoms: _311  and  _312
REMARK  141  A    between atoms: _311  and  _314
REMARK  142  A    between atoms: _314  and  _315
REMARK  143  A    between atoms: _320  and  _322
REMARK  144  A    between atoms: _322  and  _323
REMARK  145  A    between atoms: _322  and  _325
REMARK  146  A    between atoms: _325  and  _326
REMARK  147  A    between atoms: _329  and  _331
REMARK  148  A    between atoms: _331  and  _332
REMARK  149  A    between atoms: _334  and  _336
REMARK  150  A    between atoms: _336  and  _337
REMARK  151  A    between atoms: _336  and  _339
REMARK  152  A    between atoms: _339  and  _340
REMARK  153  A    between atoms: _343  and  _345
REMARK  154  A    between atoms: _345  and  _346
REMARK  155  A    between atoms: _345  and  _348
REMARK  156  A    between atoms: _348  and  _349
REMARK  157  A    between atoms: _352  and  _354
REMARK  158  A    between atoms: _354  and  _355
REMARK  159  A    between atoms: _358  and  _360
REMARK  160  A    between atoms: _360  and  _361
REMARK  161  A    between atoms: _360  and  _363
REMARK  162  A    between atoms: _363  and  _364
REMARK  163  A    between atoms: _364  and  _365
REMARK  164  A    between atoms: _365  and  _366
REMARK  165  A    between atoms: _366  and  _367
REMARK  166  A    between atoms: _371  and  _373
REMARK  167  A    between atoms: _373  and  _374
REMARK  168  A    between atoms: _373  and  _376
REMARK  169  A    between atoms: _376  and  _377
REMARK  170  A    between atoms: _380  and  _382
REMARK  171  A    between atoms: _382  and  _383
REMARK  172  A    between atoms: _382  and  _385
REMARK  173  A    between atoms: _385  and  _386
REMARK  174  A    between atoms: _392  and  _394
REMARK  175  A    between atoms: _394  and  _395
REMARK  176  A    between atoms: _397  and  _399
REMARK  177  A    between atoms: _399  and  _400
REMARK  178  A    between atoms: _399  and  _402
REMARK  179  A    between atoms: _405  and  _407
REMARK  180  A    between atoms: _407  and  _408
REMARK  181  A    between atoms: _410  and  _412
REMARK  182  A    between atoms: _412  and  _413
REMARK  183  A    between atoms: _412  and  _415
REMARK  184  A    between atoms: _415  and  _416
REMARK  185  A    between atoms: _422  and  _424
REMARK  186  A    between atoms: _424  and  _425
REMARK  187  A    between atoms: _424  and  _427
REMARK  188  A    between atoms: _427  and  _428
REMARK  189  A    between atoms: _433  and  _434
REMARK  190  A    between atoms: _436  and  _438
REMARK  191  A    between atoms: _438  and  _439
REMARK  192  A    between atoms: _438  and  _441
REMARK  193  A    between atoms: _441  and  _442
REMARK  194  A    between atoms: _444  and  _446
REMARK  195  A    between atoms: _446  and  _447
REMARK  196  A    between atoms: _446  and  _449
REMARK  197  A    between atoms: _449  and  _450
REMARK  198  A    between atoms: _455  and  _456
REMARK  199  A    between atoms: _458  and  _460
REMARK  200  A    between atoms: _460  and  _461
REMARK  201  A    between atoms: _460  and  _463
REMARK  202  A    between atoms: _466  and  _468
REMARK  203  A    between atoms: _468  and  _469
REMARK  204  A    between atoms: _468  and  _471
REMARK  205  A    between atoms: _471  and  _472
REMARK  206  A    between atoms: _475  and  _477
REMARK  207  A    between atoms: _477  and  _478
REMARK  208  A    between atoms: _477  and  _480
REMARK  209  A    between atoms: _483  and  _485
REMARK  210  A    between atoms: _485  and  _486
REMARK  211  A    between atoms: _485  and  _488
REMARK  212  A    between atoms: _488  and  _489
REMARK  213  A    between atoms: _492  and  _494
REMARK  214  A    between atoms: _494  and  _495
REMARK  215  A    between atoms: _494  and  _497
REMARK  216  A    between atoms: _497  and  _498
REMARK  217  A    between atoms: _501  and  _503
REMARK  218  A    between atoms: _503  and  _504
REMARK  219  A    between atoms: _503  and  _506
REMARK  220  A    between atoms: _506  and  _507
REMARK  221  A    between atoms: _507  and  _508
REMARK  222  A    between atoms: _508  and  _509
REMARK  223  A    between atoms: _509  and  _510
REMARK  224  A    between atoms: _514  and  _516
REMARK  225  A    between atoms: _516  and  _517
REMARK  226  A    between atoms: _516  and  _519
REMARK  227  A    between atoms: _519  and  _520
REMARK  228  A    between atoms: _525  and  _527
REMARK  229  A    between atoms: _527  and  _528
REMARK  230  A    between atoms: _527  and  _530
REMARK  231  A    between atoms: _530  and  _531
REMARK  232  A    between atoms: _541  and  _543
REMARK  233  A    between atoms: _543  and  _544
REMARK  234  A    between atoms: _543  and  _546
REMARK  235  A    between atoms: _546  and  _547
REMARK  236  A    between atoms: _547  and  _548
REMARK  237  A    between atoms: _551  and  _553
REMARK  238  A    between atoms: _553  and  _554
REMARK  239  A    between atoms: _553  and  _556
REMARK  240  A    between atoms: _556  and  _557
REMARK  241  A    between atoms: _559  and  _561
REMARK  242  A    between atoms: _561  and  _562
REMARK  243  A    between atoms: _561  and  _564
REMARK  244  A    between atoms: _564  and  _565
REMARK  245  A    between atoms: _571  and  _573
REMARK  246  A    between atoms: _573  and  _574
REMARK  247  A    between atoms: _573  and  _576
REMARK  248  A    between atoms: _576  and  _577
REMARK  249  A    between atoms: _580  and  _582
REMARK  250  A    between atoms: _582  and  _583
REMARK  251  A    between atoms: _582  and  _585
REMARK  252  A    between atoms: _588  and  _590
REMARK  253  A    between atoms: _590  and  _591
REMARK  254  A    between atoms: _593  and  _595
REMARK  255  A    between atoms: _595  and  _596
REMARK  256  A    between atoms: _595  and  _598
REMARK  257  A    between atoms: _598  and  _599
REMARK  258  A    between atoms: _602  and  _604
REMARK  259  A    between atoms: _604  and  _605
REMARK  260  A    between atoms: _604  and  _607
REMARK  261  A    between atoms: _607  and  _608
REMARK  262  A    between atoms: _608  and  _609
REMARK  263  A    between atoms: _609  and  _610
REMARK  264  A    between atoms: _610  and  _611
REMARK  265  A    between atoms: _615  and  _617
REMARK  266  A    between atoms: _617  and  _618
REMARK  267  A    between atoms: _617  and  _620
REMARK                            x       y       z     vdW  Elec       q    Type
REMARK                         _______ _______ _______ _____ _____    ______ ____
ROOT
ATOM      1  O   HOH     1      10.089  12.580  26.400  0.00  0.00    +0.000 OA
ENDROOT
TORSDOF 0
REMARK  Name = ../refined-set-2016/4nh7/4nh7_pocket.pdb
REMARK  267 active torsions:
REMARK  status: ('A' for Active; 'I' for Inactive)
REMARK    1  A    between atoms: _1  and  _3
REMARK    2  A    between atoms: _3  and  _4
REMARK    3  A    between atoms: _3  and  _6
REMARK    4  A    between atoms: _6  and  _7
REMARK    5  A    between atoms: _13  and  _15
REMARK    6  A    between atoms: _15  and  _16
REMARK    7  A    between atoms: _15  and  _18
REMARK    8  A    between atoms: _18  and  _19
REMARK    9  A    between atoms: _19  and  _20
REMARK   10  A    between atoms: _25  and  _27
REMARK   11  A    between atoms: _27  and  _28
REMARK   12  A    between atoms: _27  and  _30
REMARK   13  A    between atoms: _30  and  _31
REMARK   14  A    between atoms: _34  and  _36
REMARK   15  A    between atoms: _36  and  _37
REMARK   16  A    between atoms: _36  and  _39
REMARK   17  A    between atoms: _39  and  _40
REMARK   18  A    between atoms: _43  and  _45
REMARK   19  A    between atoms: _45  and  _46
REMARK   20  A    between atoms: _45  and  _48
REMARK   21  A    between atoms: _48  and  _49
REMARK   22  A    between atoms: _49  and  _50
REMARK   23  A    between atoms: _52  and  _54
REMARK   24  A    between atoms: _54  and  _55
REMARK   25  A    between atoms: _54  and  _57
REMARK   26  A    between atoms: _57  and  _58
REMARK   27  A    between atoms: _58  and  _59
REMARK   28  A    between atoms: _62  and  _64
REMARK   29  A    between atoms: _64  and  _65
REMARK   30  A    between atoms: _64  and  _67
REMARK   31  A    between atoms: _67  and  _68
REMARK   32  A    between atoms: _71  and  _73
REMARK   33  A    between atoms: _73  and  _74
REMARK   34  A    between atoms: _73  and  _76
REMARK   35  A    between atoms: _76  and  _77
REMARK   36  A    between atoms: _80  and  _82
REMARK   37  A    between atoms: _82  and  _83
REMARK   38  A    between atoms: _82  and  _85
REMARK   39  A    between atoms: _85  and  _86
REMARK   40  A    between atoms: _88  and  _90
REMARK   41  A    between atoms: _90  and  _91
REMARK   42  A    between atoms: _90  and  _93
REMARK   43  A    between atoms: _93  and  _94
REMARK   44  A    between atoms: _99  and  _101
REMARK   45  A    between atoms: _101  and  _102
REMARK   46  A    between atoms: _101  and  _104
REMARK   47  A    between atoms: _104  and  _105
REMARK   48  A    between atoms: _107  and  _109
REMARK   49  A    between atoms: _109  and  _110
REMARK   50  A    between atoms: _109  and  _112
REMARK   51  A    between atoms: _112  and  _113
REMARK   52  A    between atoms: _115  and  _117
REMARK   53  A    between atoms: _117  and  _118
REMARK   54  A    between atoms: _117  and  _120
REMARK   55  A    between atoms: _120  and  _121
REMARK   56  A    between atoms: _124  and  _126
REMARK   57  A    between atoms: _126  and  _127
REMARK   58  A    between atoms: _130  and  _132
REMARK   59  A    between atoms: _132  and  _133
REMARK   60  A    between atoms: _132  and  _135
REMARK   61  A    between atoms: _135  and  _136
REMARK   62  A    between atoms: _139  and  _141
REMARK   63  A    between atoms: _141  and  _142
REMARK   64  A    between atoms: _141  and  _144
REMARK   65  A    between atoms: _144  and  _145
REMARK   66  A    between atoms: _148  and  _150
REMARK   67  A    between atoms: _150  and  _151
REMARK   68  A    between atoms: _150  and  _153
REMARK   69  A    between atoms: _153  and  _154
REMARK   70  A    between atoms: _154  and  _155
REMARK   71  A    between atoms: _155  and  _156
REMARK   72  A    between atoms: _156  and  _157
REMARK   73  A    between atoms: _161  and  _163
REMARK   74  A    between atoms: _163  and  _164
REMARK   75  A    between atoms: _163  and  _166
REMARK   76  A    between atoms: _166  and  _167
REMARK   77  A    between atoms: _170  and  _172
REMARK   78  A    between atoms: _172  and  _173
REMARK   79  A    between atoms: _172  and  _175
REMARK   80  A    between atoms: _175  and  _176
REMARK   81  A    between atoms: _176  and  _177
REMARK   82  A    between atoms: _180  and  _182
REMARK   83  A    between atoms: _182  and  _183
REMARK   84  A    between atoms: _182  and  _185
REMARK   85  A    between atoms: _185  and  _186
REMARK   86  A    between atoms: _189  and  _191
REMARK   87  A    between atoms: _191  and  _192
REMARK   88  A    between atoms: _191  and  _194
REMARK   89  A    between atoms: _197  and  _199
REMARK   90  A    between atoms: _199  and  _200
REMARK   91  A    between atoms: _199  and  _202
REMARK   92  A    between atoms: _202  and  _203
REMARK   93  A    between atoms: _206  and  _208
REMARK   94  A    between atoms: _208  and  _209
REMARK   95  A    between atoms: _208  and  _211
REMARK   96  A    between atoms: _211  and  _212
REMARK   97  A    between atoms: _215  and  _217
REMARK   98  A    between atoms: _217  and  _218
REMARK   99  A    between atoms: _220  and  _222
REMARK  100  A    between atoms: _222  and  _223
REMARK  101  A    between atoms: _222  and  _225
REMARK  102  A    between atoms: _225  and  _226
REMARK  103  A    between atoms: _229  and  _231
REMARK  104  A    between atoms: _231  and  _232
REMARK  105  A    between atoms: _234  and  _236
REMARK  106  A    between atoms: _236  and  _237
REMARK  107  A    between atoms: _236  and  _239
REMARK  108  A    between atoms: _239  and  _240
REMARK  109  A    between atoms: _240  and  _241
REMARK  110  A    between atoms: _243  and  _245
REMARK  111  A    between atoms: _245  and  _246
REMARK  112  A    between atoms: _245  and  _248
REMARK  113  A    between atoms: _248  and  _249
REMARK  114  A    between atoms: _252  and  _254
REMARK  115  A    between atoms: _254  and  _255
REMARK  116  A    between atoms: _254  and  _257
REMARK  117  A    between atoms: _257  and  _258
REMARK  118  A    between atoms: _258  and  _259
REMARK  119  A    between atoms: _259  and  _260
REMARK  120  A    between atoms: _260  and  _261
REMARK  121  A    between atoms: _265  and  _267
REMARK  122  A    between atoms: _267  and  _268
REMARK  123  A    between atoms: _271  and  _273
REMARK  124  A    between atoms: _273  and  _274
REMARK  125  A    between atoms: _273  and  _276
REMARK  126  A    between atoms: _276  and  _277
REMARK  127  A    between atoms: _280  and  _282
REMARK  128  A    between atoms: _282  and  _283
REMARK  129  A    between atoms: _282  and  _285
REMARK  130  A    between atoms: _285  and  _286
REMARK  131  A    between atoms: _289  and  _291
REMARK  132  A    between atoms: _291  and  _292
REMARK  133  A    between atoms: _291  and  _294
REMARK  134  A    between atoms: _294  and  _295
REMARK  135  A    between atoms: _298  and  _300
REMARK  136  A    between atoms: _300  and  _301
REMARK  137  A    between atoms: _300  and  _303
REMARK  138  A    between atoms: _303  and  _304
REMARK  139  A    between atoms: _309  and  _311
REMARK  140  A    between atoms: _311  and  _312
REMARK  141  A    between atoms: _311  and  _314
REMARK  142  A    between atoms: _314  and  _315
REMARK  143  A    between atoms: _320  and  _322
REMARK  144  A    between atoms: _322  and  _323
REMARK  145  A    between atoms: _322  and  _325
REMARK  146  A    between atoms: _325  and  _326
REMARK  147  A    between atoms: _329  and  _331
REMARK  148  A    between atoms: _331  and  _332
REMARK  149  A    between atoms: _334  and  _336
REMARK  150  A    between atoms: _336  and  _337
REMARK  151  A    between atoms: _336  and  _339
REMARK  152  A    between atoms: _339  and  _340
REMARK  153  A    between atoms: _343  and  _345
REMARK  154  A    between atoms: _345  and  _346
REMARK  155  A    between atoms: _345  and  _348
REMARK  156  A    between atoms: _348  and  _349
REMARK  157  A    between atoms: _352  and  _354
REMARK  158  A    between atoms: _354  and  _355
REMARK  159  A    between atoms: _358  and  _360
REMARK  160  A    between atoms: _360  and  _361
REMARK  161  A    between atoms: _360  and  _363
REMARK  162  A    between atoms: _363  and  _364
REMARK  163  A    between atoms: _364  and  _365
REMARK  164  A    between atoms: _365  and  _366
REMARK  165  A    between atoms: _366  and  _367
REMARK  166  A    between atoms: _371  and  _373
REMARK  167  A    between atoms: _373  and  _374
REMARK  168  A    between atoms: _373  and  _376
REMARK  169  A    between atoms: _376  and  _377
REMARK  170  A    between atoms: _380  and  _382
REMARK  171  A    between atoms: _382  and  _383
REMARK  172  A    between atoms: _382  and  _385
REMARK  173  A    between atoms: _385  and  _386
REMARK  174  A    between atoms: _392  and  _394
REMARK  175  A    between atoms: _394  and  _395
REMARK  176  A    between atoms: _397  and  _399
REMARK  177  A    between atoms: _399  and  _400
REMARK  178  A    between atoms: _399  and  _402
REMARK  179  A    between atoms: _405  and  _407
REMARK  180  A    between atoms: _407  and  _408
REMARK  181  A    between atoms: _410  and  _412
REMARK  182  A    between atoms: _412  and  _413
REMARK  183  A    between atoms: _412  and  _415
REMARK  184  A    between atoms: _415  and  _416
REMARK  185  A    between atoms: _422  and  _424
REMARK  186  A    between atoms: _424  and  _425
REMARK  187  A    between atoms: _424  and  _427
REMARK  188  A    between atoms: _427  and  _428
REMARK  189  A    between atoms: _433  and  _434
REMARK  190  A    between atoms: _436  and  _438
REMARK  191  A    between atoms: _438  and  _439
REMARK  192  A    between atoms: _438  and  _441
REMARK  193  A    between atoms: _441  and  _442
REMARK  194  A    between atoms: _444  and  _446
REMARK  195  A    between atoms: _446  and  _447
REMARK  196  A    between atoms: _446  and  _449
REMARK  197  A    between atoms: _449  and  _450
REMARK  198  A    between atoms: _455  and  _456
REMARK  199  A    between atoms: _458  and  _460
REMARK  200  A    between atoms: _460  and  _461
REMARK  201  A    between atoms: _460  and  _463
REMARK  202  A    between atoms: _466  and  _468
REMARK  203  A    between atoms: _468  and  _469
REMARK  204  A    between atoms: _468  and  _471
REMARK  205  A    between atoms: _471  and  _472
REMARK  206  A    between atoms: _475  and  _477
REMARK  207  A    between atoms: _477  and  _478
REMARK  208  A    between atoms: _477  and  _480
REMARK  209  A    between atoms: _483  and  _485
REMARK  210  A    between atoms: _485  and  _486
REMARK  211  A    between atoms: _485  and  _488
REMARK  212  A    between atoms: _488  and  _489
REMARK  213  A    between atoms: _492  and  _494
REMARK  214  A    between atoms: _494  and  _495
REMARK  215  A    between atoms: _494  and  _497
REMARK  216  A    between atoms: _497  and  _498
REMARK  217  A    between atoms: _501  and  _503
REMARK  218  A    between atoms: _503  and  _504
REMARK  219  A    between atoms: _503  and  _506
REMARK  220  A    between atoms: _506  and  _507
REMARK  221  A    between atoms: _507  and  _508
REMARK  222  A    between atoms: _508  and  _509
REMARK  223  A    between atoms: _509  and  _510
REMARK  224  A    between atoms: _514  and  _516
REMARK  225  A    between atoms: _516  and  _517
REMARK  226  A    between atoms: _516  and  _519
REMARK  227  A    between atoms: _519  and  _520
REMARK  228  A    between atoms: _525  and  _527
REMARK  229  A    between atoms: _527  and  _528
REMARK  230  A    between atoms: _527  and  _530
REMARK  231  A    between atoms: _530  and  _531
REMARK  232  A    between atoms: _541  and  _543
REMARK  233  A    between atoms: _543  and  _544
REMARK  234  A    between atoms: _543  and  _546
REMARK  235  A    between atoms: _546  and  _547
REMARK  236  A    between atoms: _547  and  _548
REMARK  237  A    between atoms: _551  and  _553
REMARK  238  A    between atoms: _553  and  _554
REMARK  239  A    between atoms: _553  and  _556
REMARK  240  A    between atoms: _556  and  _557
REMARK  241  A    between atoms: _559  and  _561
REMARK  242  A    between atoms: _561  and  _562
REMARK  243  A    between atoms: _561  and  _564
REMARK  244  A    between atoms: _564  and  _565
REMARK  245  A    between atoms: _571  and  _573
REMARK  246  A    between atoms: _573  and  _574
REMARK  247  A    between atoms: _573  and  _576
REMARK  248  A    between atoms: _576  and  _577
REMARK  249  A    between atoms: _580  and  _582
REMARK  250  A    between atoms: _582  and  _583
REMARK  251  A    between atoms: _582  and  _585
REMARK  252  A    between atoms: _588  and  _590
REMARK  253  A    between atoms: _590  and  _591
REMARK  254  A    between atoms: _593  and  _595
REMARK  255  A    between atoms: _595  and  _596
REMARK  256  A    between atoms: _595  and  _598
REMARK  257  A    between atoms: _598  and  _599
REMARK  258  A    between atoms: _602  and  _604
REMARK  259  A    between atoms: _604  and  _605
REMARK  260  A    between atoms: _604  and  _607
REMARK  261  A    between atoms: _607  and  _608
REMARK  262  A    between atoms: _608  and  _609
REMARK  263  A    between atoms: _609  and  _610
REMARK  264  A    between atoms: _610  and  _611
REMARK  265  A    between atoms: _615  and  _617
REMARK  266  A    between atoms: _617  and  _618
REMARK  267  A    between atoms: _617  and  _620
REMARK                            x       y       z     vdW  Elec       q    Type
REMARK                         _______ _______ _______ _____ _____    ______ ____
ROOT
ATOM      1  O   HOH     1      15.568   1.883  25.786  0.00  0.00    +0.000 OA
ENDROOT
TORSDOF 0
REMARK  Name = ../refined-set-2016/4nh7/4nh7_pocket.pdb
REMARK  267 active torsions:
REMARK  status: ('A' for Active; 'I' for Inactive)
REMARK    1  A    between atoms: _1  and  _3
REMARK    2  A    between atoms: _3  and  _4
REMARK    3  A    between atoms: _3  and  _6
REMARK    4  A    between atoms: _6  and  _7
REMARK    5  A    between atoms: _13  and  _15
REMARK    6  A    between atoms: _15  and  _16
REMARK    7  A    between atoms: _15  and  _18
REMARK    8  A    between atoms: _18  and  _19
REMARK    9  A    between atoms: _19  and  _20
REMARK   10  A    between atoms: _25  and  _27
REMARK   11  A    between atoms: _27  and  _28
REMARK   12  A    between atoms: _27  and  _30
REMARK   13  A    between atoms: _30  and  _31
REMARK   14  A    between atoms: _34  and  _36
REMARK   15  A    between atoms: _36  and  _37
REMARK   16  A    between atoms: _36  and  _39
REMARK   17  A    between atoms: _39  and  _40
REMARK   18  A    between atoms: _43  and  _45
REMARK   19  A    between atoms: _45  and  _46
REMARK   20  A    between atoms: _45  and  _48
REMARK   21  A    between atoms: _48  and  _49
REMARK   22  A    between atoms: _49  and  _50
REMARK   23  A    between atoms: _52  and  _54
REMARK   24  A    between atoms: _54  and  _55
REMARK   25  A    between atoms: _54  and  _57
REMARK   26  A    between atoms: _57  and  _58
REMARK   27  A    between atoms: _58  and  _59
REMARK   28  A    between atoms: _62  and  _64
REMARK   29  A    between atoms: _64  and  _65
REMARK   30  A    between atoms: _64  and  _67
REMARK   31  A    between atoms: _67  and  _68
REMARK   32  A    between atoms: _71  and  _73
REMARK   33  A    between atoms: _73  and  _74
REMARK   34  A    between atoms: _73  and  _76
REMARK   35  A    between atoms: _76  and  _77
REMARK   36  A    between atoms: _80  and  _82
REMARK   37  A    between atoms: _82  and  _83
REMARK   38  A    between atoms: _82  and  _85
REMARK   39  A    between atoms: _85  and  _86
REMARK   40  A    between atoms: _88  and  _90
REMARK   41  A    between atoms: _90  and  _91
REMARK   42  A    between atoms: _90  and  _93
REMARK   43  A    between atoms: _93  and  _94
REMARK   44  A    between atoms: _99  and  _101
REMARK   45  A    between atoms: _101  and  _102
REMARK   46  A    between atoms: _101  and  _104
REMARK   47  A    between atoms: _104  and  _105
REMARK   48  A    between atoms: _107  and  _109
REMARK   49  A    between atoms: _109  and  _110
REMARK   50  A    between atoms: _109  and  _112
REMARK   51  A    between atoms: _112  and  _113
REMARK   52  A    between atoms: _115  and  _117
REMARK   53  A    between atoms: _117  and  _118
REMARK   54  A    between atoms: _117  and  _120
REMARK   55  A    between atoms: _120  and  _121
REMARK   56  A    between atoms: _124  and  _126
REMARK   57  A    between atoms: _126  and  _127
REMARK   58  A    between atoms: _130  and  _132
REMARK   59  A    between atoms: _132  and  _133
REMARK   60  A    between atoms: _132  and  _135
REMARK   61  A    between atoms: _135  and  _136
REMARK   62  A    between atoms: _139  and  _141
REMARK   63  A    between atoms: _141  and  _142
REMARK   64  A    between atoms: _141  and  _144
REMARK   65  A    between atoms: _144  and  _145
REMARK   66  A    between atoms: _148  and  _150
REMARK   67  A    between atoms: _150  and  _151
REMARK   68  A    between atoms: _150  and  _153
REMARK   69  A    between atoms: _153  and  _154
REMARK   70  A    between atoms: _154  and  _155
REMARK   71  A    between atoms: _155  and  _156
REMARK   72  A    between atoms: _156  and  _157
REMARK   73  A    between atoms: _161  and  _163
REMARK   74  A    between atoms: _163  and  _164
REMARK   75  A    between atoms: _163  and  _166
REMARK   76  A    between atoms: _166  and  _167
REMARK   77  A    between atoms: _170  and  _172
REMARK   78  A    between atoms: _172  and  _173
REMARK   79  A    between atoms: _172  and  _175
REMARK   80  A    between atoms: _175  and  _176
REMARK   81  A    between atoms: _176  and  _177
REMARK   82  A    between atoms: _180  and  _182
REMARK   83  A    between atoms: _182  and  _183
REMARK   84  A    between atoms: _182  and  _185
REMARK   85  A    between atoms: _185  and  _186
REMARK   86  A    between atoms: _189  and  _191
REMARK   87  A    between atoms: _191  and  _192
REMARK   88  A    between atoms: _191  and  _194
REMARK   89  A    between atoms: _197  and  _199
REMARK   90  A    between atoms: _199  and  _200
REMARK   91  A    between atoms: _199  and  _202
REMARK   92  A    between atoms: _202  and  _203
REMARK   93  A    between atoms: _206  and  _208
REMARK   94  A    between atoms: _208  and  _209
REMARK   95  A    between atoms: _208  and  _211
REMARK   96  A    between atoms: _211  and  _212
REMARK   97  A    between atoms: _215  and  _217
REMARK   98  A    between atoms: _217  and  _218
REMARK   99  A    between atoms: _220  and  _222
REMARK  100  A    between atoms: _222  and  _223
REMARK  101  A    between atoms: _222  and  _225
REMARK  102  A    between atoms: _225  and  _226
REMARK  103  A    between atoms: _229  and  _231
REMARK  104  A    between atoms: _231  and  _232
REMARK  105  A    between atoms: _234  and  _236
REMARK  106  A    between atoms: _236  and  _237
REMARK  107  A    between atoms: _236  and  _239
REMARK  108  A    between atoms: _239  and  _240
REMARK  109  A    between atoms: _240  and  _241
REMARK  110  A    between atoms: _243  and  _245
REMARK  111  A    between atoms: _245  and  _246
REMARK  112  A    between atoms: _245  and  _248
REMARK  113  A    between atoms: _248  and  _249
REMARK  114  A    between atoms: _252  and  _254
REMARK  115  A    between atoms: _254  and  _255
REMARK  116  A    between atoms: _254  and  _257
REMARK  117  A    between atoms: _257  and  _258
REMARK  118  A    between atoms: _258  and  _259
REMARK  119  A    between atoms: _259  and  _260
REMARK  120  A    between atoms: _260  and  _261
REMARK  121  A    between atoms: _265  and  _267
REMARK  122  A    between atoms: _267  and  _268
REMARK  123  A    between atoms: _271  and  _273
REMARK  124  A    between atoms: _273  and  _274
REMARK  125  A    between atoms: _273  and  _276
REMARK  126  A    between atoms: _276  and  _277
REMARK  127  A    between atoms: _280  and  _282
REMARK  128  A    between atoms: _282  and  _283
REMARK  129  A    between atoms: _282  and  _285
REMARK  130  A    between atoms: _285  and  _286
REMARK  131  A    between atoms: _289  and  _291
REMARK  132  A    between atoms: _291  and  _292
REMARK  133  A    between atoms: _291  and  _294
REMARK  134  A    between atoms: _294  and  _295
REMARK  135  A    between atoms: _298  and  _300
REMARK  136  A    between atoms: _300  and  _301
REMARK  137  A    between atoms: _300  and  _303
REMARK  138  A    between atoms: _303  and  _304
REMARK  139  A    between atoms: _309  and  _311
REMARK  140  A    between atoms: _311  and  _312
REMARK  141  A    between atoms: _311  and  _314
REMARK  142  A    between atoms: _314  and  _315
REMARK  143  A    between atoms: _320  and  _322
REMARK  144  A    between atoms: _322  and  _323
REMARK  145  A    between atoms: _322  and  _325
REMARK  146  A    between atoms: _325  and  _326
REMARK  147  A    between atoms: _329  and  _331
REMARK  148  A    between atoms: _331  and  _332
REMARK  149  A    between atoms: _334  and  _336
REMARK  150  A    between atoms: _336  and  _337
REMARK  151  A    between atoms: _336  and  _339
REMARK  152  A    between atoms: _339  and  _340
REMARK  153  A    between atoms: _343  and  _345
REMARK  154  A    between atoms: _345  and  _346
REMARK  155  A    between atoms: _345  and  _348
REMARK  156  A    between atoms: _348  and  _349
REMARK  157  A    between atoms: _352  and  _354
REMARK  158  A    between atoms: _354  and  _355
REMARK  159  A    between atoms: _358  and  _360
REMARK  160  A    between atoms: _360  and  _361
REMARK  161  A    between atoms: _360  and  _363
REMARK  162  A    between atoms: _363  and  _364
REMARK  163  A    between atoms: _364  and  _365
REMARK  164  A    between atoms: _365  and  _366
REMARK  165  A    between atoms: _366  and  _367
REMARK  166  A    between atoms: _371  and  _373
REMARK  167  A    between atoms: _373  and  _374
REMARK  168  A    between atoms: _373  and  _376
REMARK  169  A    between atoms: _376  and  _377
REMARK  170  A    between atoms: _380  and  _382
REMARK  171  A    between atoms: _382  and  _383
REMARK  172  A    between atoms: _382  and  _385
REMARK  173  A    between atoms: _385  and  _386
REMARK  174  A    between atoms: _392  and  _394
REMARK  175  A    between atoms: _394  and  _395
REMARK  176  A    between atoms: _397  and  _399
REMARK  177  A    between atoms: _399  and  _400
REMARK  178  A    between atoms: _399  and  _402
REMARK  179  A    between atoms: _405  and  _407
REMARK  180  A    between atoms: _407  and  _408
REMARK  181  A    between atoms: _410  and  _412
REMARK  182  A    between atoms: _412  and  _413
REMARK  183  A    between atoms: _412  and  _415
REMARK  184  A    between atoms: _415  and  _416
REMARK  185  A    between atoms: _422  and  _424
REMARK  186  A    between atoms: _424  and  _425
REMARK  187  A    between atoms: _424  and  _427
REMARK  188  A    between atoms: _427  and  _428
REMARK  189  A    between atoms: _433  and  _434
REMARK  190  A    between atoms: _436  and  _438
REMARK  191  A    between atoms: _438  and  _439
REMARK  192  A    between atoms: _438  and  _441
REMARK  193  A    between atoms: _441  and  _442
REMARK  194  A    between atoms: _444  and  _446
REMARK  195  A    between atoms: _446  and  _447
REMARK  196  A    between atoms: _446  and  _449
REMARK  197  A    between atoms: _449  and  _450
REMARK  198  A    between atoms: _455  and  _456
REMARK  199  A    between atoms: _458  and  _460
REMARK  200  A    between atoms: _460  and  _461
REMARK  201  A    between atoms: _460  and  _463
REMARK  202  A    between atoms: _466  and  _468
REMARK  203  A    between atoms: _468  and  _469
REMARK  204  A    between atoms: _468  and  _471
REMARK  205  A    between atoms: _471  and  _472
REMARK  206  A    between atoms: _475  and  _477
REMARK  207  A    between atoms: _477  and  _478
REMARK  208  A    between atoms: _477  and  _480
REMARK  209  A    between atoms: _483  and  _485
REMARK  210  A    between atoms: _485  and  _486
REMARK  211  A    between atoms: _485  and  _488
REMARK  212  A    between atoms: _488  and  _489
REMARK  213  A    between atoms: _492  and  _494
REMARK  214  A    between atoms: _494  and  _495
REMARK  215  A    between atoms: _494  and  _497
REMARK  216  A    between atoms: _497  and  _498
REMARK  217  A    between atoms: _501  and  _503
REMARK  218  A    between atoms: _503  and  _504
REMARK  219  A    between atoms: _503  and  _506
REMARK  220  A    between atoms: _506  and  _507
REMARK  221  A    between atoms: _507  and  _508
REMARK  222  A    between atoms: _508  and  _509
REMARK  223  A    between atoms: _509  and  _510
REMARK  224  A    between atoms: _514  and  _516
REMARK  225  A    between atoms: _516  and  _517
REMARK  226  A    between atoms: _516  and  _519
REMARK  227  A    between atoms: _519  and  _520
REMARK  228  A    between atoms: _525  and  _527
REMARK  229  A    between atoms: _527  and  _528
REMARK  230  A    between atoms: _527  and  _530
REMARK  231  A    between atoms: _530  and  _531
REMARK  232  A    between atoms: _541  and  _543
REMARK  233  A    between atoms: _543  and  _544
REMARK  234  A    between atoms: _543  and  _546
REMARK  235  A    between atoms: _546  and  _547
REMARK  236  A    between atoms: _547  and  _548
REMARK  237  A    between atoms: _551  and  _553
REMARK  238  A    between atoms: _553  and  _554
REMARK  239  A    between atoms: _553  and  _556
REMARK  240  A    between atoms: _556  and  _557
REMARK  241  A    between atoms: _559  and  _561
REMARK  242  A    between atoms: _561  and  _562
REMARK  243  A    between atoms: _561  and  _564
REMARK  244  A    between atoms: _564  and  _565
REMARK  245  A    between atoms: _571  and  _573
REMARK  246  A    between atoms: _573  and  _574
REMARK  247  A    between atoms: _573  and  _576
REMARK  248  A    between atoms: _576  and  _577
REMARK  249  A    between atoms: _580  and  _582
REMARK  250  A    between atoms: _582  and  _583
REMARK  251  A    between atoms: _582  and  _585
REMARK  252  A    between atoms: _588  and  _590
REMARK  253  A    between atoms: _590  and  _591
REMARK  254  A    between atoms: _593  and  _595
REMARK  255  A    between atoms: _595  and  _596
REMARK  256  A    between atoms: _595  and  _598
REMARK  257  A    between atoms: _598  and  _599
REMARK  258  A    between atoms: _602  and  _604
REMARK  259  A    between atoms: _604  and  _605
REMARK  260  A    between atoms: _604  and  _607
REMARK  261  A    between atoms: _607  and  _608
REMARK  262  A    between atoms: _608  and  _609
REMARK  263  A    between atoms: _609  and  _610
REMARK  264  A    between atoms: _610  and  _611
REMARK  265  A    between atoms: _615  and  _617
REMARK  266  A    between atoms: _617  and  _618
REMARK  267  A    between atoms: _617  and  _620
REMARK                            x       y       z     vdW  Elec       q    Type
REMARK                         _______ _______ _______ _____ _____    ______ ____
ROOT
ATOM      1  O   HOH     1      10.354  11.287  21.264  0.00  0.00    +0.000 OA
ENDROOT
TORSDOF 0
REMARK  Name = ../refined-set-2016/4nh7/4nh7_pocket.pdb
REMARK  267 active torsions:
REMARK  status: ('A' for Active; 'I' for Inactive)
REMARK    1  A    between atoms: _1  and  _3
REMARK    2  A    between atoms: _3  and  _4
REMARK    3  A    between atoms: _3  and  _6
REMARK    4  A    between atoms: _6  and  _7
REMARK    5  A    between atoms: _13  and  _15
REMARK    6  A    between atoms: _15  and  _16
REMARK    7  A    between atoms: _15  and  _18
REMARK    8  A    between atoms: _18  and  _19
REMARK    9  A    between atoms: _19  and  _20
REMARK   10  A    between atoms: _25  and  _27
REMARK   11  A    between atoms: _27  and  _28
REMARK   12  A    between atoms: _27  and  _30
REMARK   13  A    between atoms: _30  and  _31
REMARK   14  A    between atoms: _34  and  _36
REMARK   15  A    between atoms: _36  and  _37
REMARK   16  A    between atoms: _36  and  _39
REMARK   17  A    between atoms: _39  and  _40
REMARK   18  A    between atoms: _43  and  _45
REMARK   19  A    between atoms: _45  and  _46
REMARK   20  A    between atoms: _45  and  _48
REMARK   21  A    between atoms: _48  and  _49
REMARK   22  A    between atoms: _49  and  _50
REMARK   23  A    between atoms: _52  and  _54
REMARK   24  A    between atoms: _54  and  _55
REMARK   25  A    between atoms: _54  and  _57
REMARK   26  A    between atoms: _57  and  _58
REMARK   27  A    between atoms: _58  and  _59
REMARK   28  A    between atoms: _62  and  _64
REMARK   29  A    between atoms: _64  and  _65
REMARK   30  A    between atoms: _64  and  _67
REMARK   31  A    between atoms: _67  and  _68
REMARK   32  A    between atoms: _71  and  _73
REMARK   33  A    between atoms: _73  and  _74
REMARK   34  A    between atoms: _73  and  _76
REMARK   35  A    between atoms: _76  and  _77
REMARK   36  A    between atoms: _80  and  _82
REMARK   37  A    between atoms: _82  and  _83
REMARK   38  A    between atoms: _82  and  _85
REMARK   39  A    between atoms: _85  and  _86
REMARK   40  A    between atoms: _88  and  _90
REMARK   41  A    between atoms: _90  and  _91
REMARK   42  A    between atoms: _90  and  _93
REMARK   43  A    between atoms: _93  and  _94
REMARK   44  A    between atoms: _99  and  _101
REMARK   45  A    between atoms: _101  and  _102
REMARK   46  A    between atoms: _101  and  _104
REMARK   47  A    between atoms: _104  and  _105
REMARK   48  A    between atoms: _107  and  _109
REMARK   49  A    between atoms: _109  and  _110
REMARK   50  A    between atoms: _109  and  _112
REMARK   51  A    between atoms: _112  and  _113
REMARK   52  A    between atoms: _115  and  _117
REMARK   53  A    between atoms: _117  and  _118
REMARK   54  A    between atoms: _117  and  _120
REMARK   55  A    between atoms: _120  and  _121
REMARK   56  A    between atoms: _124  and  _126
REMARK   57  A    between atoms: _126  and  _127
REMARK   58  A    between atoms: _130  and  _132
REMARK   59  A    between atoms: _132  and  _133
REMARK   60  A    between atoms: _132  and  _135
REMARK   61  A    between atoms: _135  and  _136
REMARK   62  A    between atoms: _139  and  _141
REMARK   63  A    between atoms: _141  and  _142
REMARK   64  A    between atoms: _141  and  _144
REMARK   65  A    between atoms: _144  and  _145
REMARK   66  A    between atoms: _148  and  _150
REMARK   67  A    between atoms: _150  and  _151
REMARK   68  A    between atoms: _150  and  _153
REMARK   69  A    between atoms: _153  and  _154
REMARK   70  A    between atoms: _154  and  _155
REMARK   71  A    between atoms: _155  and  _156
REMARK   72  A    between atoms: _156  and  _157
REMARK   73  A    between atoms: _161  and  _163
REMARK   74  A    between atoms: _163  and  _164
REMARK   75  A    between atoms: _163  and  _166
REMARK   76  A    between atoms: _166  and  _167
REMARK   77  A    between atoms: _170  and  _172
REMARK   78  A    between atoms: _172  and  _173
REMARK   79  A    between atoms: _172  and  _175
REMARK   80  A    between atoms: _175  and  _176
REMARK   81  A    between atoms: _176  and  _177
REMARK   82  A    between atoms: _180  and  _182
REMARK   83  A    between atoms: _182  and  _183
REMARK   84  A    between atoms: _182  and  _185
REMARK   85  A    between atoms: _185  and  _186
REMARK   86  A    between atoms: _189  and  _191
REMARK   87  A    between atoms: _191  and  _192
REMARK   88  A    between atoms: _191  and  _194
REMARK   89  A    between atoms: _197  and  _199
REMARK   90  A    between atoms: _199  and  _200
REMARK   91  A    between atoms: _199  and  _202
REMARK   92  A    between atoms: _202  and  _203
REMARK   93  A    between atoms: _206  and  _208
REMARK   94  A    between atoms: _208  and  _209
REMARK   95  A    between atoms: _208  and  _211
REMARK   96  A    between atoms: _211  and  _212
REMARK   97  A    between atoms: _215  and  _217
REMARK   98  A    between atoms: _217  and  _218
REMARK   99  A    between atoms: _220  and  _222
REMARK  100  A    between atoms: _222  and  _223
REMARK  101  A    between atoms: _222  and  _225
REMARK  102  A    between atoms: _225  and  _226
REMARK  103  A    between atoms: _229  and  _231
REMARK  104  A    between atoms: _231  and  _232
REMARK  105  A    between atoms: _234  and  _236
REMARK  106  A    between atoms: _236  and  _237
REMARK  107  A    between atoms: _236  and  _239
REMARK  108  A    between atoms: _239  and  _240
REMARK  109  A    between atoms: _240  and  _241
REMARK  110  A    between atoms: _243  and  _245
REMARK  111  A    between atoms: _245  and  _246
REMARK  112  A    between atoms: _245  and  _248
REMARK  113  A    between atoms: _248  and  _249
REMARK  114  A    between atoms: _252  and  _254
REMARK  115  A    between atoms: _254  and  _255
REMARK  116  A    between atoms: _254  and  _257
REMARK  117  A    between atoms: _257  and  _258
REMARK  118  A    between atoms: _258  and  _259
REMARK  119  A    between atoms: _259  and  _260
REMARK  120  A    between atoms: _260  and  _261
REMARK  121  A    between atoms: _265  and  _267
REMARK  122  A    between atoms: _267  and  _268
REMARK  123  A    between atoms: _271  and  _273
REMARK  124  A    between atoms: _273  and  _274
REMARK  125  A    between atoms: _273  and  _276
REMARK  126  A    between atoms: _276  and  _277
REMARK  127  A    between atoms: _280  and  _282
REMARK  128  A    between atoms: _282  and  _283
REMARK  129  A    between atoms: _282  and  _285
REMARK  130  A    between atoms: _285  and  _286
REMARK  131  A    between atoms: _289  and  _291
REMARK  132  A    between atoms: _291  and  _292
REMARK  133  A    between atoms: _291  and  _294
REMARK  134  A    between atoms: _294  and  _295
REMARK  135  A    between atoms: _298  and  _300
REMARK  136  A    between atoms: _300  and  _301
REMARK  137  A    between atoms: _300  and  _303
REMARK  138  A    between atoms: _303  and  _304
REMARK  139  A    between atoms: _309  and  _311
REMARK  140  A    between atoms: _311  and  _312
REMARK  141  A    between atoms: _311  and  _314
REMARK  142  A    between atoms: _314  and  _315
REMARK  143  A    between atoms: _320  and  _322
REMARK  144  A    between atoms: _322  and  _323
REMARK  145  A    between atoms: _322  and  _325
REMARK  146  A    between atoms: _325  and  _326
REMARK  147  A    between atoms: _329  and  _331
REMARK  148  A    between atoms: _331  and  _332
REMARK  149  A    between atoms: _334  and  _336
REMARK  150  A    between atoms: _336  and  _337
REMARK  151  A    between atoms: _336  and  _339
REMARK  152  A    between atoms: _339  and  _340
REMARK  153  A    between atoms: _343  and  _345
REMARK  154  A    between atoms: _345  and  _346
REMARK  155  A    between atoms: _345  and  _348
REMARK  156  A    between atoms: _348  and  _349
REMARK  157  A    between atoms: _352  and  _354
REMARK  158  A    between atoms: _354  and  _355
REMARK  159  A    between atoms: _358  and  _360
REMARK  160  A    between atoms: _360  and  _361
REMARK  161  A    between atoms: _360  and  _363
REMARK  162  A    between atoms: _363  and  _364
REMARK  163  A    between atoms: _364  and  _365
REMARK  164  A    between atoms: _365  and  _366
REMARK  165  A    between atoms: _366  and  _367
REMARK  166  A    between atoms: _371  and  _373
REMARK  167  A    between atoms: _373  and  _374
REMARK  168  A    between atoms: _373  and  _376
REMARK  169  A    between atoms: _376  and  _377
REMARK  170  A    between atoms: _380  and  _382
REMARK  171  A    between atoms: _382  and  _383
REMARK  172  A    between atoms: _382  and  _385
REMARK  173  A    between atoms: _385  and  _386
REMARK  174  A    between atoms: _392  and  _394
REMARK  175  A    between atoms: _394  and  _395
REMARK  176  A    between atoms: _397  and  _399
REMARK  177  A    between atoms: _399  and  _400
REMARK  178  A    between atoms: _399  and  _402
REMARK  179  A    between atoms: _405  and  _407
REMARK  180  A    between atoms: _407  and  _408
REMARK  181  A    between atoms: _410  and  _412
REMARK  182  A    between atoms: _412  and  _413
REMARK  183  A    between atoms: _412  and  _415
REMARK  184  A    between atoms: _415  and  _416
REMARK  185  A    between atoms: _422  and  _424
REMARK  186  A    between atoms: _424  and  _425
REMARK  187  A    between atoms: _424  and  _427
REMARK  188  A    between atoms: _427  and  _428
REMARK  189  A    between atoms: _433  and  _434
REMARK  190  A    between atoms: _436  and  _438
REMARK  191  A    between atoms: _438  and  _439
REMARK  192  A    between atoms: _438  and  _441
REMARK  193  A    between atoms: _441  and  _442
REMARK  194  A    between atoms: _444  and  _446
REMARK  195  A    between atoms: _446  and  _447
REMARK  196  A    between atoms: _446  and  _449
REMARK  197  A    between atoms: _449  and  _450
REMARK  198  A    between atoms: _455  and  _456
REMARK  199  A    between atoms: _458  and  _460
REMARK  200  A    between atoms: _460  and  _461
REMARK  201  A    between atoms: _460  and  _463
REMARK  202  A    between atoms: _466  and  _468
REMARK  203  A    between atoms: _468  and  _469
REMARK  204  A    between atoms: _468  and  _471
REMARK  205  A    between atoms: _471  and  _472
REMARK  206  A    between atoms: _475  and  _477
REMARK  207  A    between atoms: _477  and  _478
REMARK  208  A    between atoms: _477  and  _480
REMARK  209  A    between atoms: _483  and  _485
REMARK  210  A    between atoms: _485  and  _486
REMARK  211  A    between atoms: _485  and  _488
REMARK  212  A    between atoms: _488  and  _489
REMARK  213  A    between atoms: _492  and  _494
REMARK  214  A    between atoms: _494  and  _495
REMARK  215  A    between atoms: _494  and  _497
REMARK  216  A    between atoms: _497  and  _498
REMARK  217  A    between atoms: _501  and  _503
REMARK  218  A    between atoms: _503  and  _504
REMARK  219  A    between atoms: _503  and  _506
REMARK  220  A    between atoms: _506  and  _507
REMARK  221  A    between atoms: _507  and  _508
REMARK  222  A    between atoms: _508  and  _509
REMARK  223  A    between atoms: _509  and  _510
REMARK  224  A    between atoms: _514  and  _516
REMARK  225  A    between atoms: _516  and  _517
REMARK  226  A    between atoms: _516  and  _519
REMARK  227  A    between atoms: _519  and  _520
REMARK  228  A    between atoms: _525  and  _527
REMARK  229  A    between atoms: _527  and  _528
REMARK  230  A    between atoms: _527  and  _530
REMARK  231  A    between atoms: _530  and  _531
REMARK  232  A    between atoms: _541  and  _543
REMARK  233  A    between atoms: _543  and  _544
REMARK  234  A    between atoms: _543  and  _546
REMARK  235  A    between atoms: _546  and  _547
REMARK  236  A    between atoms: _547  and  _548
REMARK  237  A    between atoms: _551  and  _553
REMARK  238  A    between atoms: _553  and  _554
REMARK  239  A    between atoms: _553  and  _556
REMARK  240  A    between atoms: _556  and  _557
REMARK  241  A    between atoms: _559  and  _561
REMARK  242  A    between atoms: _561  and  _562
REMARK  243  A    between atoms: _561  and  _564
REMARK  244  A    between atoms: _564  and  _565
REMARK  245  A    between atoms: _571  and  _573
REMARK  246  A    between atoms: _573  and  _574
REMARK  247  A    between atoms: _573  and  _576
REMARK  248  A    between atoms: _576  and  _577
REMARK  249  A    between atoms: _580  and  _582
REMARK  250  A    between atoms: _582  and  _583
REMARK  251  A    between atoms: _582  and  _585
REMARK  252  A    between atoms: _588  and  _590
REMARK  253  A    between atoms: _590  and  _591
REMARK  254  A    between atoms: _593  and  _595
REMARK  255  A    between atoms: _595  and  _596
REMARK  256  A    between atoms: _595  and  _598
REMARK  257  A    between atoms: _598  and  _599
REMARK  258  A    between atoms: _602  and  _604
REMARK  259  A    between atoms: _604  and  _605
REMARK  260  A    between atoms: _604  and  _607
REMARK  261  A    between atoms: _607  and  _608
REMARK  262  A    between atoms: _608  and  _609
REMARK  263  A    between atoms: _609  and  _610
REMARK  264  A    between atoms: _610  and  _611
REMARK  265  A    between atoms: _615  and  _617
REMARK  266  A    between atoms: _617  and  _618
REMARK  267  A    between atoms: _617  and  _620
REMARK                            x       y       z     vdW  Elec       q    Type
REMARK                         _______ _______ _______ _____ _____    ______ ____
ROOT
ATOM      1  O   HOH     1      24.608   7.604  19.741  0.00  0.00    +0.000 OA
ENDROOT
TORSDOF 0
REMARK  Name = ../refined-set-2016/4nh7/4nh7_pocket.pdb
REMARK  267 active torsions:
REMARK  status: ('A' for Active; 'I' for Inactive)
REMARK    1  A    between atoms: _1  and  _3
REMARK    2  A    between atoms: _3  and  _4
REMARK    3  A    between atoms: _3  and  _6
REMARK    4  A    between atoms: _6  and  _7
REMARK    5  A    between atoms: _13  and  _15
REMARK    6  A    between atoms: _15  and  _16
REMARK    7  A    between atoms: _15  and  _18
REMARK    8  A    between atoms: _18  and  _19
REMARK    9  A    between atoms: _19  and  _20
REMARK   10  A    between atoms: _25  and  _27
REMARK   11  A    between atoms: _27  and  _28
REMARK   12  A    between atoms: _27  and  _30
REMARK   13  A    between atoms: _30  and  _31
REMARK   14  A    between atoms: _34  and  _36
REMARK   15  A    between atoms: _36  and  _37
REMARK   16  A    between atoms: _36  and  _39
REMARK   17  A    between atoms: _39  and  _40
REMARK   18  A    between atoms: _43  and  _45
REMARK   19  A    between atoms: _45  and  _46
REMARK   20  A    between atoms: _45  and  _48
REMARK   21  A    between atoms: _48  and  _49
REMARK   22  A    between atoms: _49  and  _50
REMARK   23  A    between atoms: _52  and  _54
REMARK   24  A    between atoms: _54  and  _55
REMARK   25  A    between atoms: _54  and  _57
REMARK   26  A    between atoms: _57  and  _58
REMARK   27  A    between atoms: _58  and  _59
REMARK   28  A    between atoms: _62  and  _64
REMARK   29  A    between atoms: _64  and  _65
REMARK   30  A    between atoms: _64  and  _67
REMARK   31  A    between atoms: _67  and  _68
REMARK   32  A    between atoms: _71  and  _73
REMARK   33  A    between atoms: _73  and  _74
REMARK   34  A    between atoms: _73  and  _76
REMARK   35  A    between atoms: _76  and  _77
REMARK   36  A    between atoms: _80  and  _82
REMARK   37  A    between atoms: _82  and  _83
REMARK   38  A    between atoms: _82  and  _85
REMARK   39  A    between atoms: _85  and  _86
REMARK   40  A    between atoms: _88  and  _90
REMARK   41  A    between atoms: _90  and  _91
REMARK   42  A    between atoms: _90  and  _93
REMARK   43  A    between atoms: _93  and  _94
REMARK   44  A    between atoms: _99  and  _101
REMARK   45  A    between atoms: _101  and  _102
REMARK   46  A    between atoms: _101  and  _104
REMARK   47  A    between atoms: _104  and  _105
REMARK   48  A    between atoms: _107  and  _109
REMARK   49  A    between atoms: _109  and  _110
REMARK   50  A    between atoms: _109  and  _112
REMARK   51  A    between atoms: _112  and  _113
REMARK   52  A    between atoms: _115  and  _117
REMARK   53  A    between atoms: _117  and  _118
REMARK   54  A    between atoms: _117  and  _120
REMARK   55  A    between atoms: _120  and  _121
REMARK   56  A    between atoms: _124  and  _126
REMARK   57  A    between atoms: _126  and  _127
REMARK   58  A    between atoms: _130  and  _132
REMARK   59  A    between atoms: _132  and  _133
REMARK   60  A    between atoms: _132  and  _135
REMARK   61  A    between atoms: _135  and  _136
REMARK   62  A    between atoms: _139  and  _141
REMARK   63  A    between atoms: _141  and  _142
REMARK   64  A    between atoms: _141  and  _144
REMARK   65  A    between atoms: _144  and  _145
REMARK   66  A    between atoms: _148  and  _150
REMARK   67  A    between atoms: _150  and  _151
REMARK   68  A    between atoms: _150  and  _153
REMARK   69  A    between atoms: _153  and  _154
REMARK   70  A    between atoms: _154  and  _155
REMARK   71  A    between atoms: _155  and  _156
REMARK   72  A    between atoms: _156  and  _157
REMARK   73  A    between atoms: _161  and  _163
REMARK   74  A    between atoms: _163  and  _164
REMARK   75  A    between atoms: _163  and  _166
REMARK   76  A    between atoms: _166  and  _167
REMARK   77  A    between atoms: _170  and  _172
REMARK   78  A    between atoms: _172  and  _173
REMARK   79  A    between atoms: _172  and  _175
REMARK   80  A    between atoms: _175  and  _176
REMARK   81  A    between atoms: _176  and  _177
REMARK   82  A    between atoms: _180  and  _182
REMARK   83  A    between atoms: _182  and  _183
REMARK   84  A    between atoms: _182  and  _185
REMARK   85  A    between atoms: _185  and  _186
REMARK   86  A    between atoms: _189  and  _191
REMARK   87  A    between atoms: _191  and  _192
REMARK   88  A    between atoms: _191  and  _194
REMARK   89  A    between atoms: _197  and  _199
REMARK   90  A    between atoms: _199  and  _200
REMARK   91  A    between atoms: _199  and  _202
REMARK   92  A    between atoms: _202  and  _203
REMARK   93  A    between atoms: _206  and  _208
REMARK   94  A    between atoms: _208  and  _209
REMARK   95  A    between atoms: _208  and  _211
REMARK   96  A    between atoms: _211  and  _212
REMARK   97  A    between atoms: _215  and  _217
REMARK   98  A    between atoms: _217  and  _218
REMARK   99  A    between atoms: _220  and  _222
REMARK  100  A    between atoms: _222  and  _223
REMARK  101  A    between atoms: _222  and  _225
REMARK  102  A    between atoms: _225  and  _226
REMARK  103  A    between atoms: _229  and  _231
REMARK  104  A    between atoms: _231  and  _232
REMARK  105  A    between atoms: _234  and  _236
REMARK  106  A    between atoms: _236  and  _237
REMARK  107  A    between atoms: _236  and  _239
REMARK  108  A    between atoms: _239  and  _240
REMARK  109  A    between atoms: _240  and  _241
REMARK  110  A    between atoms: _243  and  _245
REMARK  111  A    between atoms: _245  and  _246
REMARK  112  A    between atoms: _245  and  _248
REMARK  113  A    between atoms: _248  and  _249
REMARK  114  A    between atoms: _252  and  _254
REMARK  115  A    between atoms: _254  and  _255
REMARK  116  A    between atoms: _254  and  _257
REMARK  117  A    between atoms: _257  and  _258
REMARK  118  A    between atoms: _258  and  _259
REMARK  119  A    between atoms: _259  and  _260
REMARK  120  A    between atoms: _260  and  _261
REMARK  121  A    between atoms: _265  and  _267
REMARK  122  A    between atoms: _267  and  _268
REMARK  123  A    between atoms: _271  and  _273
REMARK  124  A    between atoms: _273  and  _274
REMARK  125  A    between atoms: _273  and  _276
REMARK  126  A    between atoms: _276  and  _277
REMARK  127  A    between atoms: _280  and  _282
REMARK  128  A    between atoms: _282  and  _283
REMARK  129  A    between atoms: _282  and  _285
REMARK  130  A    between atoms: _285  and  _286
REMARK  131  A    between atoms: _289  and  _291
REMARK  132  A    between atoms: _291  and  _292
REMARK  133  A    between atoms: _291  and  _294
REMARK  134  A    between atoms: _294  and  _295
REMARK  135  A    between atoms: _298  and  _300
REMARK  136  A    between atoms: _300  and  _301
REMARK  137  A    between atoms: _300  and  _303
REMARK  138  A    between atoms: _303  and  _304
REMARK  139  A    between atoms: _309  and  _311
REMARK  140  A    between atoms: _311  and  _312
REMARK  141  A    between atoms: _311  and  _314
REMARK  142  A    between atoms: _314  and  _315
REMARK  143  A    between atoms: _320  and  _322
REMARK  144  A    between atoms: _322  and  _323
REMARK  145  A    between atoms: _322  and  _325
REMARK  146  A    between atoms: _325  and  _326
REMARK  147  A    between atoms: _329  and  _331
REMARK  148  A    between atoms: _331  and  _332
REMARK  149  A    between atoms: _334  and  _336
REMARK  150  A    between atoms: _336  and  _337
REMARK  151  A    between atoms: _336  and  _339
REMARK  152  A    between atoms: _339  and  _340
REMARK  153  A    between atoms: _343  and  _345
REMARK  154  A    between atoms: _345  and  _346
REMARK  155  A    between atoms: _345  and  _348
REMARK  156  A    between atoms: _348  and  _349
REMARK  157  A    between atoms: _352  and  _354
REMARK  158  A    between atoms: _354  and  _355
REMARK  159  A    between atoms: _358  and  _360
REMARK  160  A    between atoms: _360  and  _361
REMARK  161  A    between atoms: _360  and  _363
REMARK  162  A    between atoms: _363  and  _364
REMARK  163  A    between atoms: _364  and  _365
REMARK  164  A    between atoms: _365  and  _366
REMARK  165  A    between atoms: _366  and  _367
REMARK  166  A    between atoms: _371  and  _373
REMARK  167  A    between atoms: _373  and  _374
REMARK  168  A    between atoms: _373  and  _376
REMARK  169  A    between atoms: _376  and  _377
REMARK  170  A    between atoms: _380  and  _382
REMARK  171  A    between atoms: _382  and  _383
REMARK  172  A    between atoms: _382  and  _385
REMARK  173  A    between atoms: _385  and  _386
REMARK  174  A    between atoms: _392  and  _394
REMARK  175  A    between atoms: _394  and  _395
REMARK  176  A    between atoms: _397  and  _399
REMARK  177  A    between atoms: _399  and  _400
REMARK  178  A    between atoms: _399  and  _402
REMARK  179  A    between atoms: _405  and  _407
REMARK  180  A    between atoms: _407  and  _408
REMARK  181  A    between atoms: _410  and  _412
REMARK  182  A    between atoms: _412  and  _413
REMARK  183  A    between atoms: _412  and  _415
REMARK  184  A    between atoms: _415  and  _416
REMARK  185  A    between atoms: _422  and  _424
REMARK  186  A    between atoms: _424  and  _425
REMARK  187  A    between atoms: _424  and  _427
REMARK  188  A    between atoms: _427  and  _428
REMARK  189  A    between atoms: _433  and  _434
REMARK  190  A    between atoms: _436  and  _438
REMARK  191  A    between atoms: _438  and  _439
REMARK  192  A    between atoms: _438  and  _441
REMARK  193  A    between atoms: _441  and  _442
REMARK  194  A    between atoms: _444  and  _446
REMARK  195  A    between atoms: _446  and  _447
REMARK  196  A    between atoms: _446  and  _449
REMARK  197  A    between atoms: _449  and  _450
REMARK  198  A    between atoms: _455  and  _456
REMARK  199  A    between atoms: _458  and  _460
REMARK  200  A    between atoms: _460  and  _461
REMARK  201  A    between atoms: _460  and  _463
REMARK  202  A    between atoms: _466  and  _468
REMARK  203  A    between atoms: _468  and  _469
REMARK  204  A    between atoms: _468  and  _471
REMARK  205  A    between atoms: _471  and  _472
REMARK  206  A    between atoms: _475  and  _477
REMARK  207  A    between atoms: _477  and  _478
REMARK  208  A    between atoms: _477  and  _480
REMARK  209  A    between atoms: _483  and  _485
REMARK  210  A    between atoms: _485  and  _486
REMARK  211  A    between atoms: _485  and  _488
REMARK  212  A    between atoms: _488  and  _489
REMARK  213  A    between atoms: _492  and  _494
REMARK  214  A    between atoms: _494  and  _495
REMARK  215  A    between atoms: _494  and  _497
REMARK  216  A    between atoms: _497  and  _498
REMARK  217  A    between atoms: _501  and  _503
REMARK  218  A    between atoms: _503  and  _504
REMARK  219  A    between atoms: _503  and  _506
REMARK  220  A    between atoms: _506  and  _507
REMARK  221  A    between atoms: _507  and  _508
REMARK  222  A    between atoms: _508  and  _509
REMARK  223  A    between atoms: _509  and  _510
REMARK  224  A    between atoms: _514  and  _516
REMARK  225  A    between atoms: _516  and  _517
REMARK  226  A    between atoms: _516  and  _519
REMARK  227  A    between atoms: _519  and  _520
REMARK  228  A    between atoms: _525  and  _527
REMARK  229  A    between atoms: _527  and  _528
REMARK  230  A    between atoms: _527  and  _530
REMARK  231  A    between atoms: _530  and  _531
REMARK  232  A    between atoms: _541  and  _543
REMARK  233  A    between atoms: _543  and  _544
REMARK  234  A    between atoms: _543  and  _546
REMARK  235  A    between atoms: _546  and  _547
REMARK  236  A    between atoms: _547  and  _548
REMARK  237  A    between atoms: _551  and  _553
REMARK  238  A    between atoms: _553  and  _554
REMARK  239  A    between atoms: _553  and  _556
REMARK  240  A    between atoms: _556  and  _557
REMARK  241  A    between atoms: _559  and  _561
REMARK  242  A    between atoms: _561  and  _562
REMARK  243  A    between atoms: _561  and  _564
REMARK  244  A    between atoms: _564  and  _565
REMARK  245  A    between atoms: _571  and  _573
REMARK  246  A    between atoms: _573  and  _574
REMARK  247  A    between atoms: _573  and  _576
REMARK  248  A    between atoms: _576  and  _577
REMARK  249  A    between atoms: _580  and  _582
REMARK  250  A    between atoms: _582  and  _583
REMARK  251  A    between atoms: _582  and  _585
REMARK  252  A    between atoms: _588  and  _590
REMARK  253  A    between atoms: _590  and  _591
REMARK  254  A    between atoms: _593  and  _595
REMARK  255  A    between atoms: _595  and  _596
REMARK  256  A    between atoms: _595  and  _598
REMARK  257  A    between atoms: _598  and  _599
REMARK  258  A    between atoms: _602  and  _604
REMARK  259  A    between atoms: _604  and  _605
REMARK  260  A    between atoms: _604  and  _607
REMARK  261  A    between atoms: _607  and  _608
REMARK  262  A    between atoms: _608  and  _609
REMARK  263  A    between atoms: _609  and  _610
REMARK  264  A    between atoms: _610  and  _611
REMARK  265  A    between atoms: _615  and  _617
REMARK  266  A    between atoms: _617  and  _618
REMARK  267  A    between atoms: _617  and  _620
REMARK                            x       y       z     vdW  Elec       q    Type
REMARK                         _______ _______ _______ _____ _____    ______ ____
ROOT
ATOM      1  O   HOH     1      20.259   8.592  20.723  0.00  0.00    +0.000 OA
ENDROOT
TORSDOF 0
REMARK  Name = ../refined-set-2016/4nh7/4nh7_pocket.pdb
REMARK  267 active torsions:
REMARK  status: ('A' for Active; 'I' for Inactive)
REMARK    1  A    between atoms: _1  and  _3
REMARK    2  A    between atoms: _3  and  _4
REMARK    3  A    between atoms: _3  and  _6
REMARK    4  A    between atoms: _6  and  _7
REMARK    5  A    between atoms: _13  and  _15
REMARK    6  A    between atoms: _15  and  _16
REMARK    7  A    between atoms: _15  and  _18
REMARK    8  A    between atoms: _18  and  _19
REMARK    9  A    between atoms: _19  and  _20
REMARK   10  A    between atoms: _25  and  _27
REMARK   11  A    between atoms: _27  and  _28
REMARK   12  A    between atoms: _27  and  _30
REMARK   13  A    between atoms: _30  and  _31
REMARK   14  A    between atoms: _34  and  _36
REMARK   15  A    between atoms: _36  and  _37
REMARK   16  A    between atoms: _36  and  _39
REMARK   17  A    between atoms: _39  and  _40
REMARK   18  A    between atoms: _43  and  _45
REMARK   19  A    between atoms: _45  and  _46
REMARK   20  A    between atoms: _45  and  _48
REMARK   21  A    between atoms: _48  and  _49
REMARK   22  A    between atoms: _49  and  _50
REMARK   23  A    between atoms: _52  and  _54
REMARK   24  A    between atoms: _54  and  _55
REMARK   25  A    between atoms: _54  and  _57
REMARK   26  A    between atoms: _57  and  _58
REMARK   27  A    between atoms: _58  and  _59
REMARK   28  A    between atoms: _62  and  _64
REMARK   29  A    between atoms: _64  and  _65
REMARK   30  A    between atoms: _64  and  _67
REMARK   31  A    between atoms: _67  and  _68
REMARK   32  A    between atoms: _71  and  _73
REMARK   33  A    between atoms: _73  and  _74
REMARK   34  A    between atoms: _73  and  _76
REMARK   35  A    between atoms: _76  and  _77
REMARK   36  A    between atoms: _80  and  _82
REMARK   37  A    between atoms: _82  and  _83
REMARK   38  A    between atoms: _82  and  _85
REMARK   39  A    between atoms: _85  and  _86
REMARK   40  A    between atoms: _88  and  _90
REMARK   41  A    between atoms: _90  and  _91
REMARK   42  A    between atoms: _90  and  _93
REMARK   43  A    between atoms: _93  and  _94
REMARK   44  A    between atoms: _99  and  _101
REMARK   45  A    between atoms: _101  and  _102
REMARK   46  A    between atoms: _101  and  _104
REMARK   47  A    between atoms: _104  and  _105
REMARK   48  A    between atoms: _107  and  _109
REMARK   49  A    between atoms: _109  and  _110
REMARK   50  A    between atoms: _109  and  _112
REMARK   51  A    between atoms: _112  and  _113
REMARK   52  A    between atoms: _115  and  _117
REMARK   53  A    between atoms: _117  and  _118
REMARK   54  A    between atoms: _117  and  _120
REMARK   55  A    between atoms: _120  and  _121
REMARK   56  A    between atoms: _124  and  _126
REMARK   57  A    between atoms: _126  and  _127
REMARK   58  A    between atoms: _130  and  _132
REMARK   59  A    between atoms: _132  and  _133
REMARK   60  A    between atoms: _132  and  _135
REMARK   61  A    between atoms: _135  and  _136
REMARK   62  A    between atoms: _139  and  _141
REMARK   63  A    between atoms: _141  and  _142
REMARK   64  A    between atoms: _141  and  _144
REMARK   65  A    between atoms: _144  and  _145
REMARK   66  A    between atoms: _148  and  _150
REMARK   67  A    between atoms: _150  and  _151
REMARK   68  A    between atoms: _150  and  _153
REMARK   69  A    between atoms: _153  and  _154
REMARK   70  A    between atoms: _154  and  _155
REMARK   71  A    between atoms: _155  and  _156
REMARK   72  A    between atoms: _156  and  _157
REMARK   73  A    between atoms: _161  and  _163
REMARK   74  A    between atoms: _163  and  _164
REMARK   75  A    between atoms: _163  and  _166
REMARK   76  A    between atoms: _166  and  _167
REMARK   77  A    between atoms: _170  and  _172
REMARK   78  A    between atoms: _172  and  _173
REMARK   79  A    between atoms: _172  and  _175
REMARK   80  A    between atoms: _175  and  _176
REMARK   81  A    between atoms: _176  and  _177
REMARK   82  A    between atoms: _180  and  _182
REMARK   83  A    between atoms: _182  and  _183
REMARK   84  A    between atoms: _182  and  _185
REMARK   85  A    between atoms: _185  and  _186
REMARK   86  A    between atoms: _189  and  _191
REMARK   87  A    between atoms: _191  and  _192
REMARK   88  A    between atoms: _191  and  _194
REMARK   89  A    between atoms: _197  and  _199
REMARK   90  A    between atoms: _199  and  _200
REMARK   91  A    between atoms: _199  and  _202
REMARK   92  A    between atoms: _202  and  _203
REMARK   93  A    between atoms: _206  and  _208
REMARK   94  A    between atoms: _208  and  _209
REMARK   95  A    between atoms: _208  and  _211
REMARK   96  A    between atoms: _211  and  _212
REMARK   97  A    between atoms: _215  and  _217
REMARK   98  A    between atoms: _217  and  _218
REMARK   99  A    between atoms: _220  and  _222
REMARK  100  A    between atoms: _222  and  _223
REMARK  101  A    between atoms: _222  and  _225
REMARK  102  A    between atoms: _225  and  _226
REMARK  103  A    between atoms: _229  and  _231
REMARK  104  A    between atoms: _231  and  _232
REMARK  105  A    between atoms: _234  and  _236
REMARK  106  A    between atoms: _236  and  _237
REMARK  107  A    between atoms: _236  and  _239
REMARK  108  A    between atoms: _239  and  _240
REMARK  109  A    between atoms: _240  and  _241
REMARK  110  A    between atoms: _243  and  _245
REMARK  111  A    between atoms: _245  and  _246
REMARK  112  A    between atoms: _245  and  _248
REMARK  113  A    between atoms: _248  and  _249
REMARK  114  A    between atoms: _252  and  _254
REMARK  115  A    between atoms: _254  and  _255
REMARK  116  A    between atoms: _254  and  _257
REMARK  117  A    between atoms: _257  and  _258
REMARK  118  A    between atoms: _258  and  _259
REMARK  119  A    between atoms: _259  and  _260
REMARK  120  A    between atoms: _260  and  _261
REMARK  121  A    between atoms: _265  and  _267
REMARK  122  A    between atoms: _267  and  _268
REMARK  123  A    between atoms: _271  and  _273
REMARK  124  A    between atoms: _273  and  _274
REMARK  125  A    between atoms: _273  and  _276
REMARK  126  A    between atoms: _276  and  _277
REMARK  127  A    between atoms: _280  and  _282
REMARK  128  A    between atoms: _282  and  _283
REMARK  129  A    between atoms: _282  and  _285
REMARK  130  A    between atoms: _285  and  _286
REMARK  131  A    between atoms: _289  and  _291
REMARK  132  A    between atoms: _291  and  _292
REMARK  133  A    between atoms: _291  and  _294
REMARK  134  A    between atoms: _294  and  _295
REMARK  135  A    between atoms: _298  and  _300
REMARK  136  A    between atoms: _300  and  _301
REMARK  137  A    between atoms: _300  and  _303
REMARK  138  A    between atoms: _303  and  _304
REMARK  139  A    between atoms: _309  and  _311
REMARK  140  A    between atoms: _311  and  _312
REMARK  141  A    between atoms: _311  and  _314
REMARK  142  A    between atoms: _314  and  _315
REMARK  143  A    between atoms: _320  and  _322
REMARK  144  A    between atoms: _322  and  _323
REMARK  145  A    between atoms: _322  and  _325
REMARK  146  A    between atoms: _325  and  _326
REMARK  147  A    between atoms: _329  and  _331
REMARK  148  A    between atoms: _331  and  _332
REMARK  149  A    between atoms: _334  and  _336
REMARK  150  A    between atoms: _336  and  _337
REMARK  151  A    between atoms: _336  and  _339
REMARK  152  A    between atoms: _339  and  _340
REMARK  153  A    between atoms: _343  and  _345
REMARK  154  A    between atoms: _345  and  _346
REMARK  155  A    between atoms: _345  and  _348
REMARK  156  A    between atoms: _348  and  _349
REMARK  157  A    between atoms: _352  and  _354
REMARK  158  A    between atoms: _354  and  _355
REMARK  159  A    between atoms: _358  and  _360
REMARK  160  A    between atoms: _360  and  _361
REMARK  161  A    between atoms: _360  and  _363
REMARK  162  A    between atoms: _363  and  _364
REMARK  163  A    between atoms: _364  and  _365
REMARK  164  A    between atoms: _365  and  _366
REMARK  165  A    between atoms: _366  and  _367
REMARK  166  A    between atoms: _371  and  _373
REMARK  167  A    between atoms: _373  and  _374
REMARK  168  A    between atoms: _373  and  _376
REMARK  169  A    between atoms: _376  and  _377
REMARK  170  A    between atoms: _380  and  _382
REMARK  171  A    between atoms: _382  and  _383
REMARK  172  A    between atoms: _382  and  _385
REMARK  173  A    between atoms: _385  and  _386
REMARK  174  A    between atoms: _392  and  _394
REMARK  175  A    between atoms: _394  and  _395
REMARK  176  A    between atoms: _397  and  _399
REMARK  177  A    between atoms: _399  and  _400
REMARK  178  A    between atoms: _399  and  _402
REMARK  179  A    between atoms: _405  and  _407
REMARK  180  A    between atoms: _407  and  _408
REMARK  181  A    between atoms: _410  and  _412
REMARK  182  A    between atoms: _412  and  _413
REMARK  183  A    between atoms: _412  and  _415
REMARK  184  A    between atoms: _415  and  _416
REMARK  185  A    between atoms: _422  and  _424
REMARK  186  A    between atoms: _424  and  _425
REMARK  187  A    between atoms: _424  and  _427
REMARK  188  A    between atoms: _427  and  _428
REMARK  189  A    between atoms: _433  and  _434
REMARK  190  A    between atoms: _436  and  _438
REMARK  191  A    between atoms: _438  and  _439
REMARK  192  A    between atoms: _438  and  _441
REMARK  193  A    between atoms: _441  and  _442
REMARK  194  A    between atoms: _444  and  _446
REMARK  195  A    between atoms: _446  and  _447
REMARK  196  A    between atoms: _446  and  _449
REMARK  197  A    between atoms: _449  and  _450
REMARK  198  A    between atoms: _455  and  _456
REMARK  199  A    between atoms: _458  and  _460
REMARK  200  A    between atoms: _460  and  _461
REMARK  201  A    between atoms: _460  and  _463
REMARK  202  A    between atoms: _466  and  _468
REMARK  203  A    between atoms: _468  and  _469
REMARK  204  A    between atoms: _468  and  _471
REMARK  205  A    between atoms: _471  and  _472
REMARK  206  A    between atoms: _475  and  _477
REMARK  207  A    between atoms: _477  and  _478
REMARK  208  A    between atoms: _477  and  _480
REMARK  209  A    between atoms: _483  and  _485
REMARK  210  A    between atoms: _485  and  _486
REMARK  211  A    between atoms: _485  and  _488
REMARK  212  A    between atoms: _488  and  _489
REMARK  213  A    between atoms: _492  and  _494
REMARK  214  A    between atoms: _494  and  _495
REMARK  215  A    between atoms: _494  and  _497
REMARK  216  A    between atoms: _497  and  _498
REMARK  217  A    between atoms: _501  and  _503
REMARK  218  A    between atoms: _503  and  _504
REMARK  219  A    between atoms: _503  and  _506
REMARK  220  A    between atoms: _506  and  _507
REMARK  221  A    between atoms: _507  and  _508
REMARK  222  A    between atoms: _508  and  _509
REMARK  223  A    between atoms: _509  and  _510
REMARK  224  A    between atoms: _514  and  _516
REMARK  225  A    between atoms: _516  and  _517
REMARK  226  A    between atoms: _516  and  _519
REMARK  227  A    between atoms: _519  and  _520
REMARK  228  A    between atoms: _525  and  _527
REMARK  229  A    between atoms: _527  and  _528
REMARK  230  A    between atoms: _527  and  _530
REMARK  231  A    between atoms: _530  and  _531
REMARK  232  A    between atoms: _541  and  _543
REMARK  233  A    between atoms: _543  and  _544
REMARK  234  A    between atoms: _543  and  _546
REMARK  235  A    between atoms: _546  and  _547
REMARK  236  A    between atoms: _547  and  _548
REMARK  237  A    between atoms: _551  and  _553
REMARK  238  A    between atoms: _553  and  _554
REMARK  239  A    between atoms: _553  and  _556
REMARK  240  A    between atoms: _556  and  _557
REMARK  241  A    between atoms: _559  and  _561
REMARK  242  A    between atoms: _561  and  _562
REMARK  243  A    between atoms: _561  and  _564
REMARK  244  A    between atoms: _564  and  _565
REMARK  245  A    between atoms: _571  and  _573
REMARK  246  A    between atoms: _573  and  _574
REMARK  247  A    between atoms: _573  and  _576
REMARK  248  A    between atoms: _576  and  _577
REMARK  249  A    between atoms: _580  and  _582
REMARK  250  A    between atoms: _582  and  _583
REMARK  251  A    between atoms: _582  and  _585
REMARK  252  A    between atoms: _588  and  _590
REMARK  253  A    between atoms: _590  and  _591
REMARK  254  A    between atoms: _593  and  _595
REMARK  255  A    between atoms: _595  and  _596
REMARK  256  A    between atoms: _595  and  _598
REMARK  257  A    between atoms: _598  and  _599
REMARK  258  A    between atoms: _602  and  _604
REMARK  259  A    between atoms: _604  and  _605
REMARK  260  A    between atoms: _604  and  _607
REMARK  261  A    between atoms: _607  and  _608
REMARK  262  A    between atoms: _608  and  _609
REMARK  263  A    between atoms: _609  and  _610
REMARK  264  A    between atoms: _610  and  _611
REMARK  265  A    between atoms: _615  and  _617
REMARK  266  A    between atoms: _617  and  _618
REMARK  267  A    between atoms: _617  and  _620
REMARK                            x       y       z     vdW  Elec       q    Type
REMARK                         _______ _______ _______ _____ _____    ______ ____
ROOT
ATOM      1  O   HOH     1      22.067  15.071  12.020  0.00  0.00    +0.000 OA
ENDROOT
TORSDOF 0
REMARK  Name = ../refined-set-2016/4nh7/4nh7_pocket.pdb
REMARK  267 active torsions:
REMARK  status: ('A' for Active; 'I' for Inactive)
REMARK    1  A    between atoms: _1  and  _3
REMARK    2  A    between atoms: _3  and  _4
REMARK    3  A    between atoms: _3  and  _6
REMARK    4  A    between atoms: _6  and  _7
REMARK    5  A    between atoms: _13  and  _15
REMARK    6  A    between atoms: _15  and  _16
REMARK    7  A    between atoms: _15  and  _18
REMARK    8  A    between atoms: _18  and  _19
REMARK    9  A    between atoms: _19  and  _20
REMARK   10  A    between atoms: _25  and  _27
REMARK   11  A    between atoms: _27  and  _28
REMARK   12  A    between atoms: _27  and  _30
REMARK   13  A    between atoms: _30  and  _31
REMARK   14  A    between atoms: _34  and  _36
REMARK   15  A    between atoms: _36  and  _37
REMARK   16  A    between atoms: _36  and  _39
REMARK   17  A    between atoms: _39  and  _40
REMARK   18  A    between atoms: _43  and  _45
REMARK   19  A    between atoms: _45  and  _46
REMARK   20  A    between atoms: _45  and  _48
REMARK   21  A    between atoms: _48  and  _49
REMARK   22  A    between atoms: _49  and  _50
REMARK   23  A    between atoms: _52  and  _54
REMARK   24  A    between atoms: _54  and  _55
REMARK   25  A    between atoms: _54  and  _57
REMARK   26  A    between atoms: _57  and  _58
REMARK   27  A    between atoms: _58  and  _59
REMARK   28  A    between atoms: _62  and  _64
REMARK   29  A    between atoms: _64  and  _65
REMARK   30  A    between atoms: _64  and  _67
REMARK   31  A    between atoms: _67  and  _68
REMARK   32  A    between atoms: _71  and  _73
REMARK   33  A    between atoms: _73  and  _74
REMARK   34  A    between atoms: _73  and  _76
REMARK   35  A    between atoms: _76  and  _77
REMARK   36  A    between atoms: _80  and  _82
REMARK   37  A    between atoms: _82  and  _83
REMARK   38  A    between atoms: _82  and  _85
REMARK   39  A    between atoms: _85  and  _86
REMARK   40  A    between atoms: _88  and  _90
REMARK   41  A    between atoms: _90  and  _91
REMARK   42  A    between atoms: _90  and  _93
REMARK   43  A    between atoms: _93  and  _94
REMARK   44  A    between atoms: _99  and  _101
REMARK   45  A    between atoms: _101  and  _102
REMARK   46  A    between atoms: _101  and  _104
REMARK   47  A    between atoms: _104  and  _105
REMARK   48  A    between atoms: _107  and  _109
REMARK   49  A    between atoms: _109  and  _110
REMARK   50  A    between atoms: _109  and  _112
REMARK   51  A    between atoms: _112  and  _113
REMARK   52  A    between atoms: _115  and  _117
REMARK   53  A    between atoms: _117  and  _118
REMARK   54  A    between atoms: _117  and  _120
REMARK   55  A    between atoms: _120  and  _121
REMARK   56  A    between atoms: _124  and  _126
REMARK   57  A    between atoms: _126  and  _127
REMARK   58  A    between atoms: _130  and  _132
REMARK   59  A    between atoms: _132  and  _133
REMARK   60  A    between atoms: _132  and  _135
REMARK   61  A    between atoms: _135  and  _136
REMARK   62  A    between atoms: _139  and  _141
REMARK   63  A    between atoms: _141  and  _142
REMARK   64  A    between atoms: _141  and  _144
REMARK   65  A    between atoms: _144  and  _145
REMARK   66  A    between atoms: _148  and  _150
REMARK   67  A    between atoms: _150  and  _151
REMARK   68  A    between atoms: _150  and  _153
REMARK   69  A    between atoms: _153  and  _154
REMARK   70  A    between atoms: _154  and  _155
REMARK   71  A    between atoms: _155  and  _156
REMARK   72  A    between atoms: _156  and  _157
REMARK   73  A    between atoms: _161  and  _163
REMARK   74  A    between atoms: _163  and  _164
REMARK   75  A    between atoms: _163  and  _166
REMARK   76  A    between atoms: _166  and  _167
REMARK   77  A    between atoms: _170  and  _172
REMARK   78  A    between atoms: _172  and  _173
REMARK   79  A    between atoms: _172  and  _175
REMARK   80  A    between atoms: _175  and  _176
REMARK   81  A    between atoms: _176  and  _177
REMARK   82  A    between atoms: _180  and  _182
REMARK   83  A    between atoms: _182  and  _183
REMARK   84  A    between atoms: _182  and  _185
REMARK   85  A    between atoms: _185  and  _186
REMARK   86  A    between atoms: _189  and  _191
REMARK   87  A    between atoms: _191  and  _192
REMARK   88  A    between atoms: _191  and  _194
REMARK   89  A    between atoms: _197  and  _199
REMARK   90  A    between atoms: _199  and  _200
REMARK   91  A    between atoms: _199  and  _202
REMARK   92  A    between atoms: _202  and  _203
REMARK   93  A    between atoms: _206  and  _208
REMARK   94  A    between atoms: _208  and  _209
REMARK   95  A    between atoms: _208  and  _211
REMARK   96  A    between atoms: _211  and  _212
REMARK   97  A    between atoms: _215  and  _217
REMARK   98  A    between atoms: _217  and  _218
REMARK   99  A    between atoms: _220  and  _222
REMARK  100  A    between atoms: _222  and  _223
REMARK  101  A    between atoms: _222  and  _225
REMARK  102  A    between atoms: _225  and  _226
REMARK  103  A    between atoms: _229  and  _231
REMARK  104  A    between atoms: _231  and  _232
REMARK  105  A    between atoms: _234  and  _236
REMARK  106  A    between atoms: _236  and  _237
REMARK  107  A    between atoms: _236  and  _239
REMARK  108  A    between atoms: _239  and  _240
REMARK  109  A    between atoms: _240  and  _241
REMARK  110  A    between atoms: _243  and  _245
REMARK  111  A    between atoms: _245  and  _246
REMARK  112  A    between atoms: _245  and  _248
REMARK  113  A    between atoms: _248  and  _249
REMARK  114  A    between atoms: _252  and  _254
REMARK  115  A    between atoms: _254  and  _255
REMARK  116  A    between atoms: _254  and  _257
REMARK  117  A    between atoms: _257  and  _258
REMARK  118  A    between atoms: _258  and  _259
REMARK  119  A    between atoms: _259  and  _260
REMARK  120  A    between atoms: _260  and  _261
REMARK  121  A    between atoms: _265  and  _267
REMARK  122  A    between atoms: _267  and  _268
REMARK  123  A    between atoms: _271  and  _273
REMARK  124  A    between atoms: _273  and  _274
REMARK  125  A    between atoms: _273  and  _276
REMARK  126  A    between atoms: _276  and  _277
REMARK  127  A    between atoms: _280  and  _282
REMARK  128  A    between atoms: _282  and  _283
REMARK  129  A    between atoms: _282  and  _285
REMARK  130  A    between atoms: _285  and  _286
REMARK  131  A    between atoms: _289  and  _291
REMARK  132  A    between atoms: _291  and  _292
REMARK  133  A    between atoms: _291  and  _294
REMARK  134  A    between atoms: _294  and  _295
REMARK  135  A    between atoms: _298  and  _300
REMARK  136  A    between atoms: _300  and  _301
REMARK  137  A    between atoms: _300  and  _303
REMARK  138  A    between atoms: _303  and  _304
REMARK  139  A    between atoms: _309  and  _311
REMARK  140  A    between atoms: _311  and  _312
REMARK  141  A    between atoms: _311  and  _314
REMARK  142  A    between atoms: _314  and  _315
REMARK  143  A    between atoms: _320  and  _322
REMARK  144  A    between atoms: _322  and  _323
REMARK  145  A    between atoms: _322  and  _325
REMARK  146  A    between atoms: _325  and  _326
REMARK  147  A    between atoms: _329  and  _331
REMARK  148  A    between atoms: _331  and  _332
REMARK  149  A    between atoms: _334  and  _336
REMARK  150  A    between atoms: _336  and  _337
REMARK  151  A    between atoms: _336  and  _339
REMARK  152  A    between atoms: _339  and  _340
REMARK  153  A    between atoms: _343  and  _345
REMARK  154  A    between atoms: _345  and  _346
REMARK  155  A    between atoms: _345  and  _348
REMARK  156  A    between atoms: _348  and  _349
REMARK  157  A    between atoms: _352  and  _354
REMARK  158  A    between atoms: _354  and  _355
REMARK  159  A    between atoms: _358  and  _360
REMARK  160  A    between atoms: _360  and  _361
REMARK  161  A    between atoms: _360  and  _363
REMARK  162  A    between atoms: _363  and  _364
REMARK  163  A    between atoms: _364  and  _365
REMARK  164  A    between atoms: _365  and  _366
REMARK  165  A    between atoms: _366  and  _367
REMARK  166  A    between atoms: _371  and  _373
REMARK  167  A    between atoms: _373  and  _374
REMARK  168  A    between atoms: _373  and  _376
REMARK  169  A    between atoms: _376  and  _377
REMARK  170  A    between atoms: _380  and  _382
REMARK  171  A    between atoms: _382  and  _383
REMARK  172  A    between atoms: _382  and  _385
REMARK  173  A    between atoms: _385  and  _386
REMARK  174  A    between atoms: _392  and  _394
REMARK  175  A    between atoms: _394  and  _395
REMARK  176  A    between atoms: _397  and  _399
REMARK  177  A    between atoms: _399  and  _400
REMARK  178  A    between atoms: _399  and  _402
REMARK  179  A    between atoms: _405  and  _407
REMARK  180  A    between atoms: _407  and  _408
REMARK  181  A    between atoms: _410  and  _412
REMARK  182  A    between atoms: _412  and  _413
REMARK  183  A    between atoms: _412  and  _415
REMARK  184  A    between atoms: _415  and  _416
REMARK  185  A    between atoms: _422  and  _424
REMARK  186  A    between atoms: _424  and  _425
REMARK  187  A    between atoms: _424  and  _427
REMARK  188  A    between atoms: _427  and  _428
REMARK  189  A    between atoms: _433  and  _434
REMARK  190  A    between atoms: _436  and  _438
REMARK  191  A    between atoms: _438  and  _439
REMARK  192  A    between atoms: _438  and  _441
REMARK  193  A    between atoms: _441  and  _442
REMARK  194  A    between atoms: _444  and  _446
REMARK  195  A    between atoms: _446  and  _447
REMARK  196  A    between atoms: _446  and  _449
REMARK  197  A    between atoms: _449  and  _450
REMARK  198  A    between atoms: _455  and  _456
REMARK  199  A    between atoms: _458  and  _460
REMARK  200  A    between atoms: _460  and  _461
REMARK  201  A    between atoms: _460  and  _463
REMARK  202  A    between atoms: _466  and  _468
REMARK  203  A    between atoms: _468  and  _469
REMARK  204  A    between atoms: _468  and  _471
REMARK  205  A    between atoms: _471  and  _472
REMARK  206  A    between atoms: _475  and  _477
REMARK  207  A    between atoms: _477  and  _478
REMARK  208  A    between atoms: _477  and  _480
REMARK  209  A    between atoms: _483  and  _485
REMARK  210  A    between atoms: _485  and  _486
REMARK  211  A    between atoms: _485  and  _488
REMARK  212  A    between atoms: _488  and  _489
REMARK  213  A    between atoms: _492  and  _494
REMARK  214  A    between atoms: _494  and  _495
REMARK  215  A    between atoms: _494  and  _497
REMARK  216  A    between atoms: _497  and  _498
REMARK  217  A    between atoms: _501  and  _503
REMARK  218  A    between atoms: _503  and  _504
REMARK  219  A    between atoms: _503  and  _506
REMARK  220  A    between atoms: _506  and  _507
REMARK  221  A    between atoms: _507  and  _508
REMARK  222  A    between atoms: _508  and  _509
REMARK  223  A    between atoms: _509  and  _510
REMARK  224  A    between atoms: _514  and  _516
REMARK  225  A    between atoms: _516  and  _517
REMARK  226  A    between atoms: _516  and  _519
REMARK  227  A    between atoms: _519  and  _520
REMARK  228  A    between atoms: _525  and  _527
REMARK  229  A    between atoms: _527  and  _528
REMARK  230  A    between atoms: _527  and  _530
REMARK  231  A    between atoms: _530  and  _531
REMARK  232  A    between atoms: _541  and  _543
REMARK  233  A    between atoms: _543  and  _544
REMARK  234  A    between atoms: _543  and  _546
REMARK  235  A    between atoms: _546  and  _547
REMARK  236  A    between atoms: _547  and  _548
REMARK  237  A    between atoms: _551  and  _553
REMARK  238  A    between atoms: _553  and  _554
REMARK  239  A    between atoms: _553  and  _556
REMARK  240  A    between atoms: _556  and  _557
REMARK  241  A    between atoms: _559  and  _561
REMARK  242  A    between atoms: _561  and  _562
REMARK  243  A    between atoms: _561  and  _564
REMARK  244  A    between atoms: _564  and  _565
REMARK  245  A    between atoms: _571  and  _573
REMARK  246  A    between atoms: _573  and  _574
REMARK  247  A    between atoms: _573  and  _576
REMARK  248  A    between atoms: _576  and  _577
REMARK  249  A    between atoms: _580  and  _582
REMARK  250  A    between atoms: _582  and  _583
REMARK  251  A    between atoms: _582  and  _585
REMARK  252  A    between atoms: _588  and  _590
REMARK  253  A    between atoms: _590  and  _591
REMARK  254  A    between atoms: _593  and  _595
REMARK  255  A    between atoms: _595  and  _596
REMARK  256  A    between atoms: _595  and  _598
REMARK  257  A    between atoms: _598  and  _599
REMARK  258  A    between atoms: _602  and  _604
REMARK  259  A    between atoms: _604  and  _605
REMARK  260  A    between atoms: _604  and  _607
REMARK  261  A    between atoms: _607  and  _608
REMARK  262  A    between atoms: _608  and  _609
REMARK  263  A    between atoms: _609  and  _610
REMARK  264  A    between atoms: _610  and  _611
REMARK  265  A    between atoms: _615  and  _617
REMARK  266  A    between atoms: _617  and  _618
REMARK  267  A    between atoms: _617  and  _620
REMARK                            x       y       z     vdW  Elec       q    Type
REMARK                         _______ _______ _______ _____ _____    ______ ____
ROOT
ATOM      1  O   HOH     1      22.144   0.552  11.861  0.00  0.00    +0.000 OA
ENDROOT
TORSDOF 0
REMARK  Name = ../refined-set-2016/4nh7/4nh7_pocket.pdb
REMARK  267 active torsions:
REMARK  status: ('A' for Active; 'I' for Inactive)
REMARK    1  A    between atoms: _1  and  _3
REMARK    2  A    between atoms: _3  and  _4
REMARK    3  A    between atoms: _3  and  _6
REMARK    4  A    between atoms: _6  and  _7
REMARK    5  A    between atoms: _13  and  _15
REMARK    6  A    between atoms: _15  and  _16
REMARK    7  A    between atoms: _15  and  _18
REMARK    8  A    between atoms: _18  and  _19
REMARK    9  A    between atoms: _19  and  _20
REMARK   10  A    between atoms: _25  and  _27
REMARK   11  A    between atoms: _27  and  _28
REMARK   12  A    between atoms: _27  and  _30
REMARK   13  A    between atoms: _30  and  _31
REMARK   14  A    between atoms: _34  and  _36
REMARK   15  A    between atoms: _36  and  _37
REMARK   16  A    between atoms: _36  and  _39
REMARK   17  A    between atoms: _39  and  _40
REMARK   18  A    between atoms: _43  and  _45
REMARK   19  A    between atoms: _45  and  _46
REMARK   20  A    between atoms: _45  and  _48
REMARK   21  A    between atoms: _48  and  _49
REMARK   22  A    between atoms: _49  and  _50
REMARK   23  A    between atoms: _52  and  _54
REMARK   24  A    between atoms: _54  and  _55
REMARK   25  A    between atoms: _54  and  _57
REMARK   26  A    between atoms: _57  and  _58
REMARK   27  A    between atoms: _58  and  _59
REMARK   28  A    between atoms: _62  and  _64
REMARK   29  A    between atoms: _64  and  _65
REMARK   30  A    between atoms: _64  and  _67
REMARK   31  A    between atoms: _67  and  _68
REMARK   32  A    between atoms: _71  and  _73
REMARK   33  A    between atoms: _73  and  _74
REMARK   34  A    between atoms: _73  and  _76
REMARK   35  A    between atoms: _76  and  _77
REMARK   36  A    between atoms: _80  and  _82
REMARK   37  A    between atoms: _82  and  _83
REMARK   38  A    between atoms: _82  and  _85
REMARK   39  A    between atoms: _85  and  _86
REMARK   40  A    between atoms: _88  and  _90
REMARK   41  A    between atoms: _90  and  _91
REMARK   42  A    between atoms: _90  and  _93
REMARK   43  A    between atoms: _93  and  _94
REMARK   44  A    between atoms: _99  and  _101
REMARK   45  A    between atoms: _101  and  _102
REMARK   46  A    between atoms: _101  and  _104
REMARK   47  A    between atoms: _104  and  _105
REMARK   48  A    between atoms: _107  and  _109
REMARK   49  A    between atoms: _109  and  _110
REMARK   50  A    between atoms: _109  and  _112
REMARK   51  A    between atoms: _112  and  _113
REMARK   52  A    between atoms: _115  and  _117
REMARK   53  A    between atoms: _117  and  _118
REMARK   54  A    between atoms: _117  and  _120
REMARK   55  A    between atoms: _120  and  _121
REMARK   56  A    between atoms: _124  and  _126
REMARK   57  A    between atoms: _126  and  _127
REMARK   58  A    between atoms: _130  and  _132
REMARK   59  A    between atoms: _132  and  _133
REMARK   60  A    between atoms: _132  and  _135
REMARK   61  A    between atoms: _135  and  _136
REMARK   62  A    between atoms: _139  and  _141
REMARK   63  A    between atoms: _141  and  _142
REMARK   64  A    between atoms: _141  and  _144
REMARK   65  A    between atoms: _144  and  _145
REMARK   66  A    between atoms: _148  and  _150
REMARK   67  A    between atoms: _150  and  _151
REMARK   68  A    between atoms: _150  and  _153
REMARK   69  A    between atoms: _153  and  _154
REMARK   70  A    between atoms: _154  and  _155
REMARK   71  A    between atoms: _155  and  _156
REMARK   72  A    between atoms: _156  and  _157
REMARK   73  A    between atoms: _161  and  _163
REMARK   74  A    between atoms: _163  and  _164
REMARK   75  A    between atoms: _163  and  _166
REMARK   76  A    between atoms: _166  and  _167
REMARK   77  A    between atoms: _170  and  _172
REMARK   78  A    between atoms: _172  and  _173
REMARK   79  A    between atoms: _172  and  _175
REMARK   80  A    between atoms: _175  and  _176
REMARK   81  A    between atoms: _176  and  _177
REMARK   82  A    between atoms: _180  and  _182
REMARK   83  A    between atoms: _182  and  _183
REMARK   84  A    between atoms: _182  and  _185
REMARK   85  A    between atoms: _185  and  _186
REMARK   86  A    between atoms: _189  and  _191
REMARK   87  A    between atoms: _191  and  _192
REMARK   88  A    between atoms: _191  and  _194
REMARK   89  A    between atoms: _197  and  _199
REMARK   90  A    between atoms: _199  and  _200
REMARK   91  A    between atoms: _199  and  _202
REMARK   92  A    between atoms: _202  and  _203
REMARK   93  A    between atoms: _206  and  _208
REMARK   94  A    between atoms: _208  and  _209
REMARK   95  A    between atoms: _208  and  _211
REMARK   96  A    between atoms: _211  and  _212
REMARK   97  A    between atoms: _215  and  _217
REMARK   98  A    between atoms: _217  and  _218
REMARK   99  A    between atoms: _220  and  _222
REMARK  100  A    between atoms: _222  and  _223
REMARK  101  A    between atoms: _222  and  _225
REMARK  102  A    between atoms: _225  and  _226
REMARK  103  A    between atoms: _229  and  _231
REMARK  104  A    between atoms: _231  and  _232
REMARK  105  A    between atoms: _234  and  _236
REMARK  106  A    between atoms: _236  and  _237
REMARK  107  A    between atoms: _236  and  _239
REMARK  108  A    between atoms: _239  and  _240
REMARK  109  A    between atoms: _240  and  _241
REMARK  110  A    between atoms: _243  and  _245
REMARK  111  A    between atoms: _245  and  _246
REMARK  112  A    between atoms: _245  and  _248
REMARK  113  A    between atoms: _248  and  _249
REMARK  114  A    between atoms: _252  and  _254
REMARK  115  A    between atoms: _254  and  _255
REMARK  116  A    between atoms: _254  and  _257
REMARK  117  A    between atoms: _257  and  _258
REMARK  118  A    between atoms: _258  and  _259
REMARK  119  A    between atoms: _259  and  _260
REMARK  120  A    between atoms: _260  and  _261
REMARK  121  A    between atoms: _265  and  _267
REMARK  122  A    between atoms: _267  and  _268
REMARK  123  A    between atoms: _271  and  _273
REMARK  124  A    between atoms: _273  and  _274
REMARK  125  A    between atoms: _273  and  _276
REMARK  126  A    between atoms: _276  and  _277
REMARK  127  A    between atoms: _280  and  _282
REMARK  128  A    between atoms: _282  and  _283
REMARK  129  A    between atoms: _282  and  _285
REMARK  130  A    between atoms: _285  and  _286
REMARK  131  A    between atoms: _289  and  _291
REMARK  132  A    between atoms: _291  and  _292
REMARK  133  A    between atoms: _291  and  _294
REMARK  134  A    between atoms: _294  and  _295
REMARK  135  A    between atoms: _298  and  _300
REMARK  136  A    between atoms: _300  and  _301
REMARK  137  A    between atoms: _300  and  _303
REMARK  138  A    between atoms: _303  and  _304
REMARK  139  A    between atoms: _309  and  _311
REMARK  140  A    between atoms: _311  and  _312
REMARK  141  A    between atoms: _311  and  _314
REMARK  142  A    between atoms: _314  and  _315
REMARK  143  A    between atoms: _320  and  _322
REMARK  144  A    between atoms: _322  and  _323
REMARK  145  A    between atoms: _322  and  _325
REMARK  146  A    between atoms: _325  and  _326
REMARK  147  A    between atoms: _329  and  _331
REMARK  148  A    between atoms: _331  and  _332
REMARK  149  A    between atoms: _334  and  _336
REMARK  150  A    between atoms: _336  and  _337
REMARK  151  A    between atoms: _336  and  _339
REMARK  152  A    between atoms: _339  and  _340
REMARK  153  A    between atoms: _343  and  _345
REMARK  154  A    between atoms: _345  and  _346
REMARK  155  A    between atoms: _345  and  _348
REMARK  156  A    between atoms: _348  and  _349
REMARK  157  A    between atoms: _352  and  _354
REMARK  158  A    between atoms: _354  and  _355
REMARK  159  A    between atoms: _358  and  _360
REMARK  160  A    between atoms: _360  and  _361
REMARK  161  A    between atoms: _360  and  _363
REMARK  162  A    between atoms: _363  and  _364
REMARK  163  A    between atoms: _364  and  _365
REMARK  164  A    between atoms: _365  and  _366
REMARK  165  A    between atoms: _366  and  _367
REMARK  166  A    between atoms: _371  and  _373
REMARK  167  A    between atoms: _373  and  _374
REMARK  168  A    between atoms: _373  and  _376
REMARK  169  A    between atoms: _376  and  _377
REMARK  170  A    between atoms: _380  and  _382
REMARK  171  A    between atoms: _382  and  _383
REMARK  172  A    between atoms: _382  and  _385
REMARK  173  A    between atoms: _385  and  _386
REMARK  174  A    between atoms: _392  and  _394
REMARK  175  A    between atoms: _394  and  _395
REMARK  176  A    between atoms: _397  and  _399
REMARK  177  A    between atoms: _399  and  _400
REMARK  178  A    between atoms: _399  and  _402
REMARK  179  A    between atoms: _405  and  _407
REMARK  180  A    between atoms: _407  and  _408
REMARK  181  A    between atoms: _410  and  _412
REMARK  182  A    between atoms: _412  and  _413
REMARK  183  A    between atoms: _412  and  _415
REMARK  184  A    between atoms: _415  and  _416
REMARK  185  A    between atoms: _422  and  _424
REMARK  186  A    between atoms: _424  and  _425
REMARK  187  A    between atoms: _424  and  _427
REMARK  188  A    between atoms: _427  and  _428
REMARK  189  A    between atoms: _433  and  _434
REMARK  190  A    between atoms: _436  and  _438
REMARK  191  A    between atoms: _438  and  _439
REMARK  192  A    between atoms: _438  and  _441
REMARK  193  A    between atoms: _441  and  _442
REMARK  194  A    between atoms: _444  and  _446
REMARK  195  A    between atoms: _446  and  _447
REMARK  196  A    between atoms: _446  and  _449
REMARK  197  A    between atoms: _449  and  _450
REMARK  198  A    between atoms: _455  and  _456
REMARK  199  A    between atoms: _458  and  _460
REMARK  200  A    between atoms: _460  and  _461
REMARK  201  A    between atoms: _460  and  _463
REMARK  202  A    between atoms: _466  and  _468
REMARK  203  A    between atoms: _468  and  _469
REMARK  204  A    between atoms: _468  and  _471
REMARK  205  A    between atoms: _471  and  _472
REMARK  206  A    between atoms: _475  and  _477
REMARK  207  A    between atoms: _477  and  _478
REMARK  208  A    between atoms: _477  and  _480
REMARK  209  A    between atoms: _483  and  _485
REMARK  210  A    between atoms: _485  and  _486
REMARK  211  A    between atoms: _485  and  _488
REMARK  212  A    between atoms: _488  and  _489
REMARK  213  A    between atoms: _492  and  _494
REMARK  214  A    between atoms: _494  and  _495
REMARK  215  A    between atoms: _494  and  _497
REMARK  216  A    between atoms: _497  and  _498
REMARK  217  A    between atoms: _501  and  _503
REMARK  218  A    between atoms: _503  and  _504
REMARK  219  A    between atoms: _503  and  _506
REMARK  220  A    between atoms: _506  and  _507
REMARK  221  A    between atoms: _507  and  _508
REMARK  222  A    between atoms: _508  and  _509
REMARK  223  A    between atoms: _509  and  _510
REMARK  224  A    between atoms: _514  and  _516
REMARK  225  A    between atoms: _516  and  _517
REMARK  226  A    between atoms: _516  and  _519
REMARK  227  A    between atoms: _519  and  _520
REMARK  228  A    between atoms: _525  and  _527
REMARK  229  A    between atoms: _527  and  _528
REMARK  230  A    between atoms: _527  and  _530
REMARK  231  A    between atoms: _530  and  _531
REMARK  232  A    between atoms: _541  and  _543
REMARK  233  A    between atoms: _543  and  _544
REMARK  234  A    between atoms: _543  and  _546
REMARK  235  A    between atoms: _546  and  _547
REMARK  236  A    between atoms: _547  and  _548
REMARK  237  A    between atoms: _551  and  _553
REMARK  238  A    between atoms: _553  and  _554
REMARK  239  A    between atoms: _553  and  _556
REMARK  240  A    between atoms: _556  and  _557
REMARK  241  A    between atoms: _559  and  _561
REMARK  242  A    between atoms: _561  and  _562
REMARK  243  A    between atoms: _561  and  _564
REMARK  244  A    between atoms: _564  and  _565
REMARK  245  A    between atoms: _571  and  _573
REMARK  246  A    between atoms: _573  and  _574
REMARK  247  A    between atoms: _573  and  _576
REMARK  248  A    between atoms: _576  and  _577
REMARK  249  A    between atoms: _580  and  _582
REMARK  250  A    between atoms: _582  and  _583
REMARK  251  A    between atoms: _582  and  _585
REMARK  252  A    between atoms: _588  and  _590
REMARK  253  A    between atoms: _590  and  _591
REMARK  254  A    between atoms: _593  and  _595
REMARK  255  A    between atoms: _595  and  _596
REMARK  256  A    between atoms: _595  and  _598
REMARK  257  A    between atoms: _598  and  _599
REMARK  258  A    between atoms: _602  and  _604
REMARK  259  A    between atoms: _604  and  _605
REMARK  260  A    between atoms: _604  and  _607
REMARK  261  A    between atoms: _607  and  _608
REMARK  262  A    between atoms: _608  and  _609
REMARK  263  A    between atoms: _609  and  _610
REMARK  264  A    between atoms: _610  and  _611
REMARK  265  A    between atoms: _615  and  _617
REMARK  266  A    between atoms: _617  and  _618
REMARK  267  A    between atoms: _617  and  _620
REMARK                            x       y       z     vdW  Elec       q    Type
REMARK                         _______ _______ _______ _____ _____    ______ ____
ROOT
ATOM      1  O   HOH     1      17.231   3.413  24.276  0.00  0.00    +0.000 OA
ENDROOT
TORSDOF 0
REMARK  Name = ../refined-set-2016/4nh7/4nh7_pocket.pdb
REMARK  267 active torsions:
REMARK  status: ('A' for Active; 'I' for Inactive)
REMARK    1  A    between atoms: _1  and  _3
REMARK    2  A    between atoms: _3  and  _4
REMARK    3  A    between atoms: _3  and  _6
REMARK    4  A    between atoms: _6  and  _7
REMARK    5  A    between atoms: _13  and  _15
REMARK    6  A    between atoms: _15  and  _16
REMARK    7  A    between atoms: _15  and  _18
REMARK    8  A    between atoms: _18  and  _19
REMARK    9  A    between atoms: _19  and  _20
REMARK   10  A    between atoms: _25  and  _27
REMARK   11  A    between atoms: _27  and  _28
REMARK   12  A    between atoms: _27  and  _30
REMARK   13  A    between atoms: _30  and  _31
REMARK   14  A    between atoms: _34  and  _36
REMARK   15  A    between atoms: _36  and  _37
REMARK   16  A    between atoms: _36  and  _39
REMARK   17  A    between atoms: _39  and  _40
REMARK   18  A    between atoms: _43  and  _45
REMARK   19  A    between atoms: _45  and  _46
REMARK   20  A    between atoms: _45  and  _48
REMARK   21  A    between atoms: _48  and  _49
REMARK   22  A    between atoms: _49  and  _50
REMARK   23  A    between atoms: _52  and  _54
REMARK   24  A    between atoms: _54  and  _55
REMARK   25  A    between atoms: _54  and  _57
REMARK   26  A    between atoms: _57  and  _58
REMARK   27  A    between atoms: _58  and  _59
REMARK   28  A    between atoms: _62  and  _64
REMARK   29  A    between atoms: _64  and  _65
REMARK   30  A    between atoms: _64  and  _67
REMARK   31  A    between atoms: _67  and  _68
REMARK   32  A    between atoms: _71  and  _73
REMARK   33  A    between atoms: _73  and  _74
REMARK   34  A    between atoms: _73  and  _76
REMARK   35  A    between atoms: _76  and  _77
REMARK   36  A    between atoms: _80  and  _82
REMARK   37  A    between atoms: _82  and  _83
REMARK   38  A    between atoms: _82  and  _85
REMARK   39  A    between atoms: _85  and  _86
REMARK   40  A    between atoms: _88  and  _90
REMARK   41  A    between atoms: _90  and  _91
REMARK   42  A    between atoms: _90  and  _93
REMARK   43  A    between atoms: _93  and  _94
REMARK   44  A    between atoms: _99  and  _101
REMARK   45  A    between atoms: _101  and  _102
REMARK   46  A    between atoms: _101  and  _104
REMARK   47  A    between atoms: _104  and  _105
REMARK   48  A    between atoms: _107  and  _109
REMARK   49  A    between atoms: _109  and  _110
REMARK   50  A    between atoms: _109  and  _112
REMARK   51  A    between atoms: _112  and  _113
REMARK   52  A    between atoms: _115  and  _117
REMARK   53  A    between atoms: _117  and  _118
REMARK   54  A    between atoms: _117  and  _120
REMARK   55  A    between atoms: _120  and  _121
REMARK   56  A    between atoms: _124  and  _126
REMARK   57  A    between atoms: _126  and  _127
REMARK   58  A    between atoms: _130  and  _132
REMARK   59  A    between atoms: _132  and  _133
REMARK   60  A    between atoms: _132  and  _135
REMARK   61  A    between atoms: _135  and  _136
REMARK   62  A    between atoms: _139  and  _141
REMARK   63  A    between atoms: _141  and  _142
REMARK   64  A    between atoms: _141  and  _144
REMARK   65  A    between atoms: _144  and  _145
REMARK   66  A    between atoms: _148  and  _150
REMARK   67  A    between atoms: _150  and  _151
REMARK   68  A    between atoms: _150  and  _153
REMARK   69  A    between atoms: _153  and  _154
REMARK   70  A    between atoms: _154  and  _155
REMARK   71  A    between atoms: _155  and  _156
REMARK   72  A    between atoms: _156  and  _157
REMARK   73  A    between atoms: _161  and  _163
REMARK   74  A    between atoms: _163  and  _164
REMARK   75  A    between atoms: _163  and  _166
REMARK   76  A    between atoms: _166  and  _167
REMARK   77  A    between atoms: _170  and  _172
REMARK   78  A    between atoms: _172  and  _173
REMARK   79  A    between atoms: _172  and  _175
REMARK   80  A    between atoms: _175  and  _176
REMARK   81  A    between atoms: _176  and  _177
REMARK   82  A    between atoms: _180  and  _182
REMARK   83  A    between atoms: _182  and  _183
REMARK   84  A    between atoms: _182  and  _185
REMARK   85  A    between atoms: _185  and  _186
REMARK   86  A    between atoms: _189  and  _191
REMARK   87  A    between atoms: _191  and  _192
REMARK   88  A    between atoms: _191  and  _194
REMARK   89  A    between atoms: _197  and  _199
REMARK   90  A    between atoms: _199  and  _200
REMARK   91  A    between atoms: _199  and  _202
REMARK   92  A    between atoms: _202  and  _203
REMARK   93  A    between atoms: _206  and  _208
REMARK   94  A    between atoms: _208  and  _209
REMARK   95  A    between atoms: _208  and  _211
REMARK   96  A    between atoms: _211  and  _212
REMARK   97  A    between atoms: _215  and  _217
REMARK   98  A    between atoms: _217  and  _218
REMARK   99  A    between atoms: _220  and  _222
REMARK  100  A    between atoms: _222  and  _223
REMARK  101  A    between atoms: _222  and  _225
REMARK  102  A    between atoms: _225  and  _226
REMARK  103  A    between atoms: _229  and  _231
REMARK  104  A    between atoms: _231  and  _232
REMARK  105  A    between atoms: _234  and  _236
REMARK  106  A    between atoms: _236  and  _237
REMARK  107  A    between atoms: _236  and  _239
REMARK  108  A    between atoms: _239  and  _240
REMARK  109  A    between atoms: _240  and  _241
REMARK  110  A    between atoms: _243  and  _245
REMARK  111  A    between atoms: _245  and  _246
REMARK  112  A    between atoms: _245  and  _248
REMARK  113  A    between atoms: _248  and  _249
REMARK  114  A    between atoms: _252  and  _254
REMARK  115  A    between atoms: _254  and  _255
REMARK  116  A    between atoms: _254  and  _257
REMARK  117  A    between atoms: _257  and  _258
REMARK  118  A    between atoms: _258  and  _259
REMARK  119  A    between atoms: _259  and  _260
REMARK  120  A    between atoms: _260  and  _261
REMARK  121  A    between atoms: _265  and  _267
REMARK  122  A    between atoms: _267  and  _268
REMARK  123  A    between atoms: _271  and  _273
REMARK  124  A    between atoms: _273  and  _274
REMARK  125  A    between atoms: _273  and  _276
REMARK  126  A    between atoms: _276  and  _277
REMARK  127  A    between atoms: _280  and  _282
REMARK  128  A    between atoms: _282  and  _283
REMARK  129  A    between atoms: _282  and  _285
REMARK  130  A    between atoms: _285  and  _286
REMARK  131  A    between atoms: _289  and  _291
REMARK  132  A    between atoms: _291  and  _292
REMARK  133  A    between atoms: _291  and  _294
REMARK  134  A    between atoms: _294  and  _295
REMARK  135  A    between atoms: _298  and  _300
REMARK  136  A    between atoms: _300  and  _301
REMARK  137  A    between atoms: _300  and  _303
REMARK  138  A    between atoms: _303  and  _304
REMARK  139  A    between atoms: _309  and  _311
REMARK  140  A    between atoms: _311  and  _312
REMARK  141  A    between atoms: _311  and  _314
REMARK  142  A    between atoms: _314  and  _315
REMARK  143  A    between atoms: _320  and  _322
REMARK  144  A    between atoms: _322  and  _323
REMARK  145  A    between atoms: _322  and  _325
REMARK  146  A    between atoms: _325  and  _326
REMARK  147  A    between atoms: _329  and  _331
REMARK  148  A    between atoms: _331  and  _332
REMARK  149  A    between atoms: _334  and  _336
REMARK  150  A    between atoms: _336  and  _337
REMARK  151  A    between atoms: _336  and  _339
REMARK  152  A    between atoms: _339  and  _340
REMARK  153  A    between atoms: _343  and  _345
REMARK  154  A    between atoms: _345  and  _346
REMARK  155  A    between atoms: _345  and  _348
REMARK  156  A    between atoms: _348  and  _349
REMARK  157  A    between atoms: _352  and  _354
REMARK  158  A    between atoms: _354  and  _355
REMARK  159  A    between atoms: _358  and  _360
REMARK  160  A    between atoms: _360  and  _361
REMARK  161  A    between atoms: _360  and  _363
REMARK  162  A    between atoms: _363  and  _364
REMARK  163  A    between atoms: _364  and  _365
REMARK  164  A    between atoms: _365  and  _366
REMARK  165  A    between atoms: _366  and  _367
REMARK  166  A    between atoms: _371  and  _373
REMARK  167  A    between atoms: _373  and  _374
REMARK  168  A    between atoms: _373  and  _376
REMARK  169  A    between atoms: _376  and  _377
REMARK  170  A    between atoms: _380  and  _382
REMARK  171  A    between atoms: _382  and  _383
REMARK  172  A    between atoms: _382  and  _385
REMARK  173  A    between atoms: _385  and  _386
REMARK  174  A    between atoms: _392  and  _394
REMARK  175  A    between atoms: _394  and  _395
REMARK  176  A    between atoms: _397  and  _399
REMARK  177  A    between atoms: _399  and  _400
REMARK  178  A    between atoms: _399  and  _402
REMARK  179  A    between atoms: _405  and  _407
REMARK  180  A    between atoms: _407  and  _408
REMARK  181  A    between atoms: _410  and  _412
REMARK  182  A    between atoms: _412  and  _413
REMARK  183  A    between atoms: _412  and  _415
REMARK  184  A    between atoms: _415  and  _416
REMARK  185  A    between atoms: _422  and  _424
REMARK  186  A    between atoms: _424  and  _425
REMARK  187  A    between atoms: _424  and  _427
REMARK  188  A    between atoms: _427  and  _428
REMARK  189  A    between atoms: _433  and  _434
REMARK  190  A    between atoms: _436  and  _438
REMARK  191  A    between atoms: _438  and  _439
REMARK  192  A    between atoms: _438  and  _441
REMARK  193  A    between atoms: _441  and  _442
REMARK  194  A    between atoms: _444  and  _446
REMARK  195  A    between atoms: _446  and  _447
REMARK  196  A    between atoms: _446  and  _449
REMARK  197  A    between atoms: _449  and  _450
REMARK  198  A    between atoms: _455  and  _456
REMARK  199  A    between atoms: _458  and  _460
REMARK  200  A    between atoms: _460  and  _461
REMARK  201  A    between atoms: _460  and  _463
REMARK  202  A    between atoms: _466  and  _468
REMARK  203  A    between atoms: _468  and  _469
REMARK  204  A    between atoms: _468  and  _471
REMARK  205  A    between atoms: _471  and  _472
REMARK  206  A    between atoms: _475  and  _477
REMARK  207  A    between atoms: _477  and  _478
REMARK  208  A    between atoms: _477  and  _480
REMARK  209  A    between atoms: _483  and  _485
REMARK  210  A    between atoms: _485  and  _486
REMARK  211  A    between atoms: _485  and  _488
REMARK  212  A    between atoms: _488  and  _489
REMARK  213  A    between atoms: _492  and  _494
REMARK  214  A    between atoms: _494  and  _495
REMARK  215  A    between atoms: _494  and  _497
REMARK  216  A    between atoms: _497  and  _498
REMARK  217  A    between atoms: _501  and  _503
REMARK  218  A    between atoms: _503  and  _504
REMARK  219  A    between atoms: _503  and  _506
REMARK  220  A    between atoms: _506  and  _507
REMARK  221  A    between atoms: _507  and  _508
REMARK  222  A    between atoms: _508  and  _509
REMARK  223  A    between atoms: _509  and  _510
REMARK  224  A    between atoms: _514  and  _516
REMARK  225  A    between atoms: _516  and  _517
REMARK  226  A    between atoms: _516  and  _519
REMARK  227  A    between atoms: _519  and  _520
REMARK  228  A    between atoms: _525  and  _527
REMARK  229  A    between atoms: _527  and  _528
REMARK  230  A    between atoms: _527  and  _530
REMARK  231  A    between atoms: _530  and  _531
REMARK  232  A    between atoms: _541  and  _543
REMARK  233  A    between atoms: _543  and  _544
REMARK  234  A    between atoms: _543  and  _546
REMARK  235  A    between atoms: _546  and  _547
REMARK  236  A    between atoms: _547  and  _548
REMARK  237  A    between atoms: _551  and  _553
REMARK  238  A    between atoms: _553  and  _554
REMARK  239  A    between atoms: _553  and  _556
REMARK  240  A    between atoms: _556  and  _557
REMARK  241  A    between atoms: _559  and  _561
REMARK  242  A    between atoms: _561  and  _562
REMARK  243  A    between atoms: _561  and  _564
REMARK  244  A    between atoms: _564  and  _565
REMARK  245  A    between atoms: _571  and  _573
REMARK  246  A    between atoms: _573  and  _574
REMARK  247  A    between atoms: _573  and  _576
REMARK  248  A    between atoms: _576  and  _577
REMARK  249  A    between atoms: _580  and  _582
REMARK  250  A    between atoms: _582  and  _583
REMARK  251  A    between atoms: _582  and  _585
REMARK  252  A    between atoms: _588  and  _590
REMARK  253  A    between atoms: _590  and  _591
REMARK  254  A    between atoms: _593  and  _595
REMARK  255  A    between atoms: _595  and  _596
REMARK  256  A    between atoms: _595  and  _598
REMARK  257  A    between atoms: _598  and  _599
REMARK  258  A    between atoms: _602  and  _604
REMARK  259  A    between atoms: _604  and  _605
REMARK  260  A    between atoms: _604  and  _607
REMARK  261  A    between atoms: _607  and  _608
REMARK  262  A    between atoms: _608  and  _609
REMARK  263  A    between atoms: _609  and  _610
REMARK  264  A    between atoms: _610  and  _611
REMARK  265  A    between atoms: _615  and  _617
REMARK  266  A    between atoms: _617  and  _618
REMARK  267  A    between atoms: _617  and  _620
REMARK                            x       y       z     vdW  Elec       q    Type
REMARK                         _______ _______ _______ _____ _____    ______ ____
ROOT
ATOM      1  O   HOH     1      10.224   5.177   9.417  0.00  0.00    +0.000 OA
ENDROOT
TORSDOF 0
REMARK  Name = ../refined-set-2016/4nh7/4nh7_pocket.pdb
REMARK  267 active torsions:
REMARK  status: ('A' for Active; 'I' for Inactive)
REMARK    1  A    between atoms: _1  and  _3
REMARK    2  A    between atoms: _3  and  _4
REMARK    3  A    between atoms: _3  and  _6
REMARK    4  A    between atoms: _6  and  _7
REMARK    5  A    between atoms: _13  and  _15
REMARK    6  A    between atoms: _15  and  _16
REMARK    7  A    between atoms: _15  and  _18
REMARK    8  A    between atoms: _18  and  _19
REMARK    9  A    between atoms: _19  and  _20
REMARK   10  A    between atoms: _25  and  _27
REMARK   11  A    between atoms: _27  and  _28
REMARK   12  A    between atoms: _27  and  _30
REMARK   13  A    between atoms: _30  and  _31
REMARK   14  A    between atoms: _34  and  _36
REMARK   15  A    between atoms: _36  and  _37
REMARK   16  A    between atoms: _36  and  _39
REMARK   17  A    between atoms: _39  and  _40
REMARK   18  A    between atoms: _43  and  _45
REMARK   19  A    between atoms: _45  and  _46
REMARK   20  A    between atoms: _45  and  _48
REMARK   21  A    between atoms: _48  and  _49
REMARK   22  A    between atoms: _49  and  _50
REMARK   23  A    between atoms: _52  and  _54
REMARK   24  A    between atoms: _54  and  _55
REMARK   25  A    between atoms: _54  and  _57
REMARK   26  A    between atoms: _57  and  _58
REMARK   27  A    between atoms: _58  and  _59
REMARK   28  A    between atoms: _62  and  _64
REMARK   29  A    between atoms: _64  and  _65
REMARK   30  A    between atoms: _64  and  _67
REMARK   31  A    between atoms: _67  and  _68
REMARK   32  A    between atoms: _71  and  _73
REMARK   33  A    between atoms: _73  and  _74
REMARK   34  A    between atoms: _73  and  _76
REMARK   35  A    between atoms: _76  and  _77
REMARK   36  A    between atoms: _80  and  _82
REMARK   37  A    between atoms: _82  and  _83
REMARK   38  A    between atoms: _82  and  _85
REMARK   39  A    between atoms: _85  and  _86
REMARK   40  A    between atoms: _88  and  _90
REMARK   41  A    between atoms: _90  and  _91
REMARK   42  A    between atoms: _90  and  _93
REMARK   43  A    between atoms: _93  and  _94
REMARK   44  A    between atoms: _99  and  _101
REMARK   45  A    between atoms: _101  and  _102
REMARK   46  A    between atoms: _101  and  _104
REMARK   47  A    between atoms: _104  and  _105
REMARK   48  A    between atoms: _107  and  _109
REMARK   49  A    between atoms: _109  and  _110
REMARK   50  A    between atoms: _109  and  _112
REMARK   51  A    between atoms: _112  and  _113
REMARK   52  A    between atoms: _115  and  _117
REMARK   53  A    between atoms: _117  and  _118
REMARK   54  A    between atoms: _117  and  _120
REMARK   55  A    between atoms: _120  and  _121
REMARK   56  A    between atoms: _124  and  _126
REMARK   57  A    between atoms: _126  and  _127
REMARK   58  A    between atoms: _130  and  _132
REMARK   59  A    between atoms: _132  and  _133
REMARK   60  A    between atoms: _132  and  _135
REMARK   61  A    between atoms: _135  and  _136
REMARK   62  A    between atoms: _139  and  _141
REMARK   63  A    between atoms: _141  and  _142
REMARK   64  A    between atoms: _141  and  _144
REMARK   65  A    between atoms: _144  and  _145
REMARK   66  A    between atoms: _148  and  _150
REMARK   67  A    between atoms: _150  and  _151
REMARK   68  A    between atoms: _150  and  _153
REMARK   69  A    between atoms: _153  and  _154
REMARK   70  A    between atoms: _154  and  _155
REMARK   71  A    between atoms: _155  and  _156
REMARK   72  A    between atoms: _156  and  _157
REMARK   73  A    between atoms: _161  and  _163
REMARK   74  A    between atoms: _163  and  _164
REMARK   75  A    between atoms: _163  and  _166
REMARK   76  A    between atoms: _166  and  _167
REMARK   77  A    between atoms: _170  and  _172
REMARK   78  A    between atoms: _172  and  _173
REMARK   79  A    between atoms: _172  and  _175
REMARK   80  A    between atoms: _175  and  _176
REMARK   81  A    between atoms: _176  and  _177
REMARK   82  A    between atoms: _180  and  _182
REMARK   83  A    between atoms: _182  and  _183
REMARK   84  A    between atoms: _182  and  _185
REMARK   85  A    between atoms: _185  and  _186
REMARK   86  A    between atoms: _189  and  _191
REMARK   87  A    between atoms: _191  and  _192
REMARK   88  A    between atoms: _191  and  _194
REMARK   89  A    between atoms: _197  and  _199
REMARK   90  A    between atoms: _199  and  _200
REMARK   91  A    between atoms: _199  and  _202
REMARK   92  A    between atoms: _202  and  _203
REMARK   93  A    between atoms: _206  and  _208
REMARK   94  A    between atoms: _208  and  _209
REMARK   95  A    between atoms: _208  and  _211
REMARK   96  A    between atoms: _211  and  _212
REMARK   97  A    between atoms: _215  and  _217
REMARK   98  A    between atoms: _217  and  _218
REMARK   99  A    between atoms: _220  and  _222
REMARK  100  A    between atoms: _222  and  _223
REMARK  101  A    between atoms: _222  and  _225
REMARK  102  A    between atoms: _225  and  _226
REMARK  103  A    between atoms: _229  and  _231
REMARK  104  A    between atoms: _231  and  _232
REMARK  105  A    between atoms: _234  and  _236
REMARK  106  A    between atoms: _236  and  _237
REMARK  107  A    between atoms: _236  and  _239
REMARK  108  A    between atoms: _239  and  _240
REMARK  109  A    between atoms: _240  and  _241
REMARK  110  A    between atoms: _243  and  _245
REMARK  111  A    between atoms: _245  and  _246
REMARK  112  A    between atoms: _245  and  _248
REMARK  113  A    between atoms: _248  and  _249
REMARK  114  A    between atoms: _252  and  _254
REMARK  115  A    between atoms: _254  and  _255
REMARK  116  A    between atoms: _254  and  _257
REMARK  117  A    between atoms: _257  and  _258
REMARK  118  A    between atoms: _258  and  _259
REMARK  119  A    between atoms: _259  and  _260
REMARK  120  A    between atoms: _260  and  _261
REMARK  121  A    between atoms: _265  and  _267
REMARK  122  A    between atoms: _267  and  _268
REMARK  123  A    between atoms: _271  and  _273
REMARK  124  A    between atoms: _273  and  _274
REMARK  125  A    between atoms: _273  and  _276
REMARK  126  A    between atoms: _276  and  _277
REMARK  127  A    between atoms: _280  and  _282
REMARK  128  A    between atoms: _282  and  _283
REMARK  129  A    between atoms: _282  and  _285
REMARK  130  A    between atoms: _285  and  _286
REMARK  131  A    between atoms: _289  and  _291
REMARK  132  A    between atoms: _291  and  _292
REMARK  133  A    between atoms: _291  and  _294
REMARK  134  A    between atoms: _294  and  _295
REMARK  135  A    between atoms: _298  and  _300
REMARK  136  A    between atoms: _300  and  _301
REMARK  137  A    between atoms: _300  and  _303
REMARK  138  A    between atoms: _303  and  _304
REMARK  139  A    between atoms: _309  and  _311
REMARK  140  A    between atoms: _311  and  _312
REMARK  141  A    between atoms: _311  and  _314
REMARK  142  A    between atoms: _314  and  _315
REMARK  143  A    between atoms: _320  and  _322
REMARK  144  A    between atoms: _322  and  _323
REMARK  145  A    between atoms: _322  and  _325
REMARK  146  A    between atoms: _325  and  _326
REMARK  147  A    between atoms: _329  and  _331
REMARK  148  A    between atoms: _331  and  _332
REMARK  149  A    between atoms: _334  and  _336
REMARK  150  A    between atoms: _336  and  _337
REMARK  151  A    between atoms: _336  and  _339
REMARK  152  A    between atoms: _339  and  _340
REMARK  153  A    between atoms: _343  and  _345
REMARK  154  A    between atoms: _345  and  _346
REMARK  155  A    between atoms: _345  and  _348
REMARK  156  A    between atoms: _348  and  _349
REMARK  157  A    between atoms: _352  and  _354
REMARK  158  A    between atoms: _354  and  _355
REMARK  159  A    between atoms: _358  and  _360
REMARK  160  A    between atoms: _360  and  _361
REMARK  161  A    between atoms: _360  and  _363
REMARK  162  A    between atoms: _363  and  _364
REMARK  163  A    between atoms: _364  and  _365
REMARK  164  A    between atoms: _365  and  _366
REMARK  165  A    between atoms: _366  and  _367
REMARK  166  A    between atoms: _371  and  _373
REMARK  167  A    between atoms: _373  and  _374
REMARK  168  A    between atoms: _373  and  _376
REMARK  169  A    between atoms: _376  and  _377
REMARK  170  A    between atoms: _380  and  _382
REMARK  171  A    between atoms: _382  and  _383
REMARK  172  A    between atoms: _382  and  _385
REMARK  173  A    between atoms: _385  and  _386
REMARK  174  A    between atoms: _392  and  _394
REMARK  175  A    between atoms: _394  and  _395
REMARK  176  A    between atoms: _397  and  _399
REMARK  177  A    between atoms: _399  and  _400
REMARK  178  A    between atoms: _399  and  _402
REMARK  179  A    between atoms: _405  and  _407
REMARK  180  A    between atoms: _407  and  _408
REMARK  181  A    between atoms: _410  and  _412
REMARK  182  A    between atoms: _412  and  _413
REMARK  183  A    between atoms: _412  and  _415
REMARK  184  A    between atoms: _415  and  _416
REMARK  185  A    between atoms: _422  and  _424
REMARK  186  A    between atoms: _424  and  _425
REMARK  187  A    between atoms: _424  and  _427
REMARK  188  A    between atoms: _427  and  _428
REMARK  189  A    between atoms: _433  and  _434
REMARK  190  A    between atoms: _436  and  _438
REMARK  191  A    between atoms: _438  and  _439
REMARK  192  A    between atoms: _438  and  _441
REMARK  193  A    between atoms: _441  and  _442
REMARK  194  A    between atoms: _444  and  _446
REMARK  195  A    between atoms: _446  and  _447
REMARK  196  A    between atoms: _446  and  _449
REMARK  197  A    between atoms: _449  and  _450
REMARK  198  A    between atoms: _455  and  _456
REMARK  199  A    between atoms: _458  and  _460
REMARK  200  A    between atoms: _460  and  _461
REMARK  201  A    between atoms: _460  and  _463
REMARK  202  A    between atoms: _466  and  _468
REMARK  203  A    between atoms: _468  and  _469
REMARK  204  A    between atoms: _468  and  _471
REMARK  205  A    between atoms: _471  and  _472
REMARK  206  A    between atoms: _475  and  _477
REMARK  207  A    between atoms: _477  and  _478
REMARK  208  A    between atoms: _477  and  _480
REMARK  209  A    between atoms: _483  and  _485
REMARK  210  A    between atoms: _485  and  _486
REMARK  211  A    between atoms: _485  and  _488
REMARK  212  A    between atoms: _488  and  _489
REMARK  213  A    between atoms: _492  and  _494
REMARK  214  A    between atoms: _494  and  _495
REMARK  215  A    between atoms: _494  and  _497
REMARK  216  A    between atoms: _497  and  _498
REMARK  217  A    between atoms: _501  and  _503
REMARK  218  A    between atoms: _503  and  _504
REMARK  219  A    between atoms: _503  and  _506
REMARK  220  A    between atoms: _506  and  _507
REMARK  221  A    between atoms: _507  and  _508
REMARK  222  A    between atoms: _508  and  _509
REMARK  223  A    between atoms: _509  and  _510
REMARK  224  A    between atoms: _514  and  _516
REMARK  225  A    between atoms: _516  and  _517
REMARK  226  A    between atoms: _516  and  _519
REMARK  227  A    between atoms: _519  and  _520
REMARK  228  A    between atoms: _525  and  _527
REMARK  229  A    between atoms: _527  and  _528
REMARK  230  A    between atoms: _527  and  _530
REMARK  231  A    between atoms: _530  and  _531
REMARK  232  A    between atoms: _541  and  _543
REMARK  233  A    between atoms: _543  and  _544
REMARK  234  A    between atoms: _543  and  _546
REMARK  235  A    between atoms: _546  and  _547
REMARK  236  A    between atoms: _547  and  _548
REMARK  237  A    between atoms: _551  and  _553
REMARK  238  A    between atoms: _553  and  _554
REMARK  239  A    between atoms: _553  and  _556
REMARK  240  A    between atoms: _556  and  _557
REMARK  241  A    between atoms: _559  and  _561
REMARK  242  A    between atoms: _561  and  _562
REMARK  243  A    between atoms: _561  and  _564
REMARK  244  A    between atoms: _564  and  _565
REMARK  245  A    between atoms: _571  and  _573
REMARK  246  A    between atoms: _573  and  _574
REMARK  247  A    between atoms: _573  and  _576
REMARK  248  A    between atoms: _576  and  _577
REMARK  249  A    between atoms: _580  and  _582
REMARK  250  A    between atoms: _582  and  _583
REMARK  251  A    between atoms: _582  and  _585
REMARK  252  A    between atoms: _588  and  _590
REMARK  253  A    between atoms: _590  and  _591
REMARK  254  A    between atoms: _593  and  _595
REMARK  255  A    between atoms: _595  and  _596
REMARK  256  A    between atoms: _595  and  _598
REMARK  257  A    between atoms: _598  and  _599
REMARK  258  A    between atoms: _602  and  _604
REMARK  259  A    between atoms: _604  and  _605
REMARK  260  A    between atoms: _604  and  _607
REMARK  261  A    between atoms: _607  and  _608
REMARK  262  A    between atoms: _608  and  _609
REMARK  263  A    between atoms: _609  and  _610
REMARK  264  A    between atoms: _610  and  _611
REMARK  265  A    between atoms: _615  and  _617
REMARK  266  A    between atoms: _617  and  _618
REMARK  267  A    between atoms: _617  and  _620
REMARK                            x       y       z     vdW  Elec       q    Type
REMARK                         _______ _______ _______ _____ _____    ______ ____
ROOT
ATOM      1  O   HOH     1      12.666   7.971  11.999  0.00  0.00    +0.000 OA
ENDROOT
TORSDOF 0
REMARK  Name = ../refined-set-2016/4nh7/4nh7_pocket.pdb
REMARK  267 active torsions:
REMARK  status: ('A' for Active; 'I' for Inactive)
REMARK    1  A    between atoms: _1  and  _3
REMARK    2  A    between atoms: _3  and  _4
REMARK    3  A    between atoms: _3  and  _6
REMARK    4  A    between atoms: _6  and  _7
REMARK    5  A    between atoms: _13  and  _15
REMARK    6  A    between atoms: _15  and  _16
REMARK    7  A    between atoms: _15  and  _18
REMARK    8  A    between atoms: _18  and  _19
REMARK    9  A    between atoms: _19  and  _20
REMARK   10  A    between atoms: _25  and  _27
REMARK   11  A    between atoms: _27  and  _28
REMARK   12  A    between atoms: _27  and  _30
REMARK   13  A    between atoms: _30  and  _31
REMARK   14  A    between atoms: _34  and  _36
REMARK   15  A    between atoms: _36  and  _37
REMARK   16  A    between atoms: _36  and  _39
REMARK   17  A    between atoms: _39  and  _40
REMARK   18  A    between atoms: _43  and  _45
REMARK   19  A    between atoms: _45  and  _46
REMARK   20  A    between atoms: _45  and  _48
REMARK   21  A    between atoms: _48  and  _49
REMARK   22  A    between atoms: _49  and  _50
REMARK   23  A    between atoms: _52  and  _54
REMARK   24  A    between atoms: _54  and  _55
REMARK   25  A    between atoms: _54  and  _57
REMARK   26  A    between atoms: _57  and  _58
REMARK   27  A    between atoms: _58  and  _59
REMARK   28  A    between atoms: _62  and  _64
REMARK   29  A    between atoms: _64  and  _65
REMARK   30  A    between atoms: _64  and  _67
REMARK   31  A    between atoms: _67  and  _68
REMARK   32  A    between atoms: _71  and  _73
REMARK   33  A    between atoms: _73  and  _74
REMARK   34  A    between atoms: _73  and  _76
REMARK   35  A    between atoms: _76  and  _77
REMARK   36  A    between atoms: _80  and  _82
REMARK   37  A    between atoms: _82  and  _83
REMARK   38  A    between atoms: _82  and  _85
REMARK   39  A    between atoms: _85  and  _86
REMARK   40  A    between atoms: _88  and  _90
REMARK   41  A    between atoms: _90  and  _91
REMARK   42  A    between atoms: _90  and  _93
REMARK   43  A    between atoms: _93  and  _94
REMARK   44  A    between atoms: _99  and  _101
REMARK   45  A    between atoms: _101  and  _102
REMARK   46  A    between atoms: _101  and  _104
REMARK   47  A    between atoms: _104  and  _105
REMARK   48  A    between atoms: _107  and  _109
REMARK   49  A    between atoms: _109  and  _110
REMARK   50  A    between atoms: _109  and  _112
REMARK   51  A    between atoms: _112  and  _113
REMARK   52  A    between atoms: _115  and  _117
REMARK   53  A    between atoms: _117  and  _118
REMARK   54  A    between atoms: _117  and  _120
REMARK   55  A    between atoms: _120  and  _121
REMARK   56  A    between atoms: _124  and  _126
REMARK   57  A    between atoms: _126  and  _127
REMARK   58  A    between atoms: _130  and  _132
REMARK   59  A    between atoms: _132  and  _133
REMARK   60  A    between atoms: _132  and  _135
REMARK   61  A    between atoms: _135  and  _136
REMARK   62  A    between atoms: _139  and  _141
REMARK   63  A    between atoms: _141  and  _142
REMARK   64  A    between atoms: _141  and  _144
REMARK   65  A    between atoms: _144  and  _145
REMARK   66  A    between atoms: _148  and  _150
REMARK   67  A    between atoms: _150  and  _151
REMARK   68  A    between atoms: _150  and  _153
REMARK   69  A    between atoms: _153  and  _154
REMARK   70  A    between atoms: _154  and  _155
REMARK   71  A    between atoms: _155  and  _156
REMARK   72  A    between atoms: _156  and  _157
REMARK   73  A    between atoms: _161  and  _163
REMARK   74  A    between atoms: _163  and  _164
REMARK   75  A    between atoms: _163  and  _166
REMARK   76  A    between atoms: _166  and  _167
REMARK   77  A    between atoms: _170  and  _172
REMARK   78  A    between atoms: _172  and  _173
REMARK   79  A    between atoms: _172  and  _175
REMARK   80  A    between atoms: _175  and  _176
REMARK   81  A    between atoms: _176  and  _177
REMARK   82  A    between atoms: _180  and  _182
REMARK   83  A    between atoms: _182  and  _183
REMARK   84  A    between atoms: _182  and  _185
REMARK   85  A    between atoms: _185  and  _186
REMARK   86  A    between atoms: _189  and  _191
REMARK   87  A    between atoms: _191  and  _192
REMARK   88  A    between atoms: _191  and  _194
REMARK   89  A    between atoms: _197  and  _199
REMARK   90  A    between atoms: _199  and  _200
REMARK   91  A    between atoms: _199  and  _202
REMARK   92  A    between atoms: _202  and  _203
REMARK   93  A    between atoms: _206  and  _208
REMARK   94  A    between atoms: _208  and  _209
REMARK   95  A    between atoms: _208  and  _211
REMARK   96  A    between atoms: _211  and  _212
REMARK   97  A    between atoms: _215  and  _217
REMARK   98  A    between atoms: _217  and  _218
REMARK   99  A    between atoms: _220  and  _222
REMARK  100  A    between atoms: _222  and  _223
REMARK  101  A    between atoms: _222  and  _225
REMARK  102  A    between atoms: _225  and  _226
REMARK  103  A    between atoms: _229  and  _231
REMARK  104  A    between atoms: _231  and  _232
REMARK  105  A    between atoms: _234  and  _236
REMARK  106  A    between atoms: _236  and  _237
REMARK  107  A    between atoms: _236  and  _239
REMARK  108  A    between atoms: _239  and  _240
REMARK  109  A    between atoms: _240  and  _241
REMARK  110  A    between atoms: _243  and  _245
REMARK  111  A    between atoms: _245  and  _246
REMARK  112  A    between atoms: _245  and  _248
REMARK  113  A    between atoms: _248  and  _249
REMARK  114  A    between atoms: _252  and  _254
REMARK  115  A    between atoms: _254  and  _255
REMARK  116  A    between atoms: _254  and  _257
REMARK  117  A    between atoms: _257  and  _258
REMARK  118  A    between atoms: _258  and  _259
REMARK  119  A    between atoms: _259  and  _260
REMARK  120  A    between atoms: _260  and  _261
REMARK  121  A    between atoms: _265  and  _267
REMARK  122  A    between atoms: _267  and  _268
REMARK  123  A    between atoms: _271  and  _273
REMARK  124  A    between atoms: _273  and  _274
REMARK  125  A    between atoms: _273  and  _276
REMARK  126  A    between atoms: _276  and  _277
REMARK  127  A    between atoms: _280  and  _282
REMARK  128  A    between atoms: _282  and  _283
REMARK  129  A    between atoms: _282  and  _285
REMARK  130  A    between atoms: _285  and  _286
REMARK  131  A    between atoms: _289  and  _291
REMARK  132  A    between atoms: _291  and  _292
REMARK  133  A    between atoms: _291  and  _294
REMARK  134  A    between atoms: _294  and  _295
REMARK  135  A    between atoms: _298  and  _300
REMARK  136  A    between atoms: _300  and  _301
REMARK  137  A    between atoms: _300  and  _303
REMARK  138  A    between atoms: _303  and  _304
REMARK  139  A    between atoms: _309  and  _311
REMARK  140  A    between atoms: _311  and  _312
REMARK  141  A    between atoms: _311  and  _314
REMARK  142  A    between atoms: _314  and  _315
REMARK  143  A    between atoms: _320  and  _322
REMARK  144  A    between atoms: _322  and  _323
REMARK  145  A    between atoms: _322  and  _325
REMARK  146  A    between atoms: _325  and  _326
REMARK  147  A    between atoms: _329  and  _331
REMARK  148  A    between atoms: _331  and  _332
REMARK  149  A    between atoms: _334  and  _336
REMARK  150  A    between atoms: _336  and  _337
REMARK  151  A    between atoms: _336  and  _339
REMARK  152  A    between atoms: _339  and  _340
REMARK  153  A    between atoms: _343  and  _345
REMARK  154  A    between atoms: _345  and  _346
REMARK  155  A    between atoms: _345  and  _348
REMARK  156  A    between atoms: _348  and  _349
REMARK  157  A    between atoms: _352  and  _354
REMARK  158  A    between atoms: _354  and  _355
REMARK  159  A    between atoms: _358  and  _360
REMARK  160  A    between atoms: _360  and  _361
REMARK  161  A    between atoms: _360  and  _363
REMARK  162  A    between atoms: _363  and  _364
REMARK  163  A    between atoms: _364  and  _365
REMARK  164  A    between atoms: _365  and  _366
REMARK  165  A    between atoms: _366  and  _367
REMARK  166  A    between atoms: _371  and  _373
REMARK  167  A    between atoms: _373  and  _374
REMARK  168  A    between atoms: _373  and  _376
REMARK  169  A    between atoms: _376  and  _377
REMARK  170  A    between atoms: _380  and  _382
REMARK  171  A    between atoms: _382  and  _383
REMARK  172  A    between atoms: _382  and  _385
REMARK  173  A    between atoms: _385  and  _386
REMARK  174  A    between atoms: _392  and  _394
REMARK  175  A    between atoms: _394  and  _395
REMARK  176  A    between atoms: _397  and  _399
REMARK  177  A    between atoms: _399  and  _400
REMARK  178  A    between atoms: _399  and  _402
REMARK  179  A    between atoms: _405  and  _407
REMARK  180  A    between atoms: _407  and  _408
REMARK  181  A    between atoms: _410  and  _412
REMARK  182  A    between atoms: _412  and  _413
REMARK  183  A    between atoms: _412  and  _415
REMARK  184  A    between atoms: _415  and  _416
REMARK  185  A    between atoms: _422  and  _424
REMARK  186  A    between atoms: _424  and  _425
REMARK  187  A    between atoms: _424  and  _427
REMARK  188  A    between atoms: _427  and  _428
REMARK  189  A    between atoms: _433  and  _434
REMARK  190  A    between atoms: _436  and  _438
REMARK  191  A    between atoms: _438  and  _439
REMARK  192  A    between atoms: _438  and  _441
REMARK  193  A    between atoms: _441  and  _442
REMARK  194  A    between atoms: _444  and  _446
REMARK  195  A    between atoms: _446  and  _447
REMARK  196  A    between atoms: _446  and  _449
REMARK  197  A    between atoms: _449  and  _450
REMARK  198  A    between atoms: _455  and  _456
REMARK  199  A    between atoms: _458  and  _460
REMARK  200  A    between atoms: _460  and  _461
REMARK  201  A    between atoms: _460  and  _463
REMARK  202  A    between atoms: _466  and  _468
REMARK  203  A    between atoms: _468  and  _469
REMARK  204  A    between atoms: _468  and  _471
REMARK  205  A    between atoms: _471  and  _472
REMARK  206  A    between atoms: _475  and  _477
REMARK  207  A    between atoms: _477  and  _478
REMARK  208  A    between atoms: _477  and  _480
REMARK  209  A    between atoms: _483  and  _485
REMARK  210  A    between atoms: _485  and  _486
REMARK  211  A    between atoms: _485  and  _488
REMARK  212  A    between atoms: _488  and  _489
REMARK  213  A    between atoms: _492  and  _494
REMARK  214  A    between atoms: _494  and  _495
REMARK  215  A    between atoms: _494  and  _497
REMARK  216  A    between atoms: _497  and  _498
REMARK  217  A    between atoms: _501  and  _503
REMARK  218  A    between atoms: _503  and  _504
REMARK  219  A    between atoms: _503  and  _506
REMARK  220  A    between atoms: _506  and  _507
REMARK  221  A    between atoms: _507  and  _508
REMARK  222  A    between atoms: _508  and  _509
REMARK  223  A    between atoms: _509  and  _510
REMARK  224  A    between atoms: _514  and  _516
REMARK  225  A    between atoms: _516  and  _517
REMARK  226  A    between atoms: _516  and  _519
REMARK  227  A    between atoms: _519  and  _520
REMARK  228  A    between atoms: _525  and  _527
REMARK  229  A    between atoms: _527  and  _528
REMARK  230  A    between atoms: _527  and  _530
REMARK  231  A    between atoms: _530  and  _531
REMARK  232  A    between atoms: _541  and  _543
REMARK  233  A    between atoms: _543  and  _544
REMARK  234  A    between atoms: _543  and  _546
REMARK  235  A    between atoms: _546  and  _547
REMARK  236  A    between atoms: _547  and  _548
REMARK  237  A    between atoms: _551  and  _553
REMARK  238  A    between atoms: _553  and  _554
REMARK  239  A    between atoms: _553  and  _556
REMARK  240  A    between atoms: _556  and  _557
REMARK  241  A    between atoms: _559  and  _561
REMARK  242  A    between atoms: _561  and  _562
REMARK  243  A    between atoms: _561  and  _564
REMARK  244  A    between atoms: _564  and  _565
REMARK  245  A    between atoms: _571  and  _573
REMARK  246  A    between atoms: _573  and  _574
REMARK  247  A    between atoms: _573  and  _576
REMARK  248  A    between atoms: _576  and  _577
REMARK  249  A    between atoms: _580  and  _582
REMARK  250  A    between atoms: _582  and  _583
REMARK  251  A    between atoms: _582  and  _585
REMARK  252  A    between atoms: _588  and  _590
REMARK  253  A    between atoms: _590  and  _591
REMARK  254  A    between atoms: _593  and  _595
REMARK  255  A    between atoms: _595  and  _596
REMARK  256  A    between atoms: _595  and  _598
REMARK  257  A    between atoms: _598  and  _599
REMARK  258  A    between atoms: _602  and  _604
REMARK  259  A    between atoms: _604  and  _605
REMARK  260  A    between atoms: _604  and  _607
REMARK  261  A    between atoms: _607  and  _608
REMARK  262  A    between atoms: _608  and  _609
REMARK  263  A    between atoms: _609  and  _610
REMARK  264  A    between atoms: _610  and  _611
REMARK  265  A    between atoms: _615  and  _617
REMARK  266  A    between atoms: _617  and  _618
REMARK  267  A    between atoms: _617  and  _620
REMARK                            x       y       z     vdW  Elec       q    Type
REMARK                         _______ _______ _______ _____ _____    ______ ____
ROOT
ATOM      1  O   HOH     1      17.672   1.802  13.270  0.00  0.00    +0.000 OA
ENDROOT
TORSDOF 0
REMARK  Name = ../refined-set-2016/4nh7/4nh7_pocket.pdb
REMARK  267 active torsions:
REMARK  status: ('A' for Active; 'I' for Inactive)
REMARK    1  A    between atoms: _1  and  _3
REMARK    2  A    between atoms: _3  and  _4
REMARK    3  A    between atoms: _3  and  _6
REMARK    4  A    between atoms: _6  and  _7
REMARK    5  A    between atoms: _13  and  _15
REMARK    6  A    between atoms: _15  and  _16
REMARK    7  A    between atoms: _15  and  _18
REMARK    8  A    between atoms: _18  and  _19
REMARK    9  A    between atoms: _19  and  _20
REMARK   10  A    between atoms: _25  and  _27
REMARK   11  A    between atoms: _27  and  _28
REMARK   12  A    between atoms: _27  and  _30
REMARK   13  A    between atoms: _30  and  _31
REMARK   14  A    between atoms: _34  and  _36
REMARK   15  A    between atoms: _36  and  _37
REMARK   16  A    between atoms: _36  and  _39
REMARK   17  A    between atoms: _39  and  _40
REMARK   18  A    between atoms: _43  and  _45
REMARK   19  A    between atoms: _45  and  _46
REMARK   20  A    between atoms: _45  and  _48
REMARK   21  A    between atoms: _48  and  _49
REMARK   22  A    between atoms: _49  and  _50
REMARK   23  A    between atoms: _52  and  _54
REMARK   24  A    between atoms: _54  and  _55
REMARK   25  A    between atoms: _54  and  _57
REMARK   26  A    between atoms: _57  and  _58
REMARK   27  A    between atoms: _58  and  _59
REMARK   28  A    between atoms: _62  and  _64
REMARK   29  A    between atoms: _64  and  _65
REMARK   30  A    between atoms: _64  and  _67
REMARK   31  A    between atoms: _67  and  _68
REMARK   32  A    between atoms: _71  and  _73
REMARK   33  A    between atoms: _73  and  _74
REMARK   34  A    between atoms: _73  and  _76
REMARK   35  A    between atoms: _76  and  _77
REMARK   36  A    between atoms: _80  and  _82
REMARK   37  A    between atoms: _82  and  _83
REMARK   38  A    between atoms: _82  and  _85
REMARK   39  A    between atoms: _85  and  _86
REMARK   40  A    between atoms: _88  and  _90
REMARK   41  A    between atoms: _90  and  _91
REMARK   42  A    between atoms: _90  and  _93
REMARK   43  A    between atoms: _93  and  _94
REMARK   44  A    between atoms: _99  and  _101
REMARK   45  A    between atoms: _101  and  _102
REMARK   46  A    between atoms: _101  and  _104
REMARK   47  A    between atoms: _104  and  _105
REMARK   48  A    between atoms: _107  and  _109
REMARK   49  A    between atoms: _109  and  _110
REMARK   50  A    between atoms: _109  and  _112
REMARK   51  A    between atoms: _112  and  _113
REMARK   52  A    between atoms: _115  and  _117
REMARK   53  A    between atoms: _117  and  _118
REMARK   54  A    between atoms: _117  and  _120
REMARK   55  A    between atoms: _120  and  _121
REMARK   56  A    between atoms: _124  and  _126
REMARK   57  A    between atoms: _126  and  _127
REMARK   58  A    between atoms: _130  and  _132
REMARK   59  A    between atoms: _132  and  _133
REMARK   60  A    between atoms: _132  and  _135
REMARK   61  A    between atoms: _135  and  _136
REMARK   62  A    between atoms: _139  and  _141
REMARK   63  A    between atoms: _141  and  _142
REMARK   64  A    between atoms: _141  and  _144
REMARK   65  A    between atoms: _144  and  _145
REMARK   66  A    between atoms: _148  and  _150
REMARK   67  A    between atoms: _150  and  _151
REMARK   68  A    between atoms: _150  and  _153
REMARK   69  A    between atoms: _153  and  _154
REMARK   70  A    between atoms: _154  and  _155
REMARK   71  A    between atoms: _155  and  _156
REMARK   72  A    between atoms: _156  and  _157
REMARK   73  A    between atoms: _161  and  _163
REMARK   74  A    between atoms: _163  and  _164
REMARK   75  A    between atoms: _163  and  _166
REMARK   76  A    between atoms: _166  and  _167
REMARK   77  A    between atoms: _170  and  _172
REMARK   78  A    between atoms: _172  and  _173
REMARK   79  A    between atoms: _172  and  _175
REMARK   80  A    between atoms: _175  and  _176
REMARK   81  A    between atoms: _176  and  _177
REMARK   82  A    between atoms: _180  and  _182
REMARK   83  A    between atoms: _182  and  _183
REMARK   84  A    between atoms: _182  and  _185
REMARK   85  A    between atoms: _185  and  _186
REMARK   86  A    between atoms: _189  and  _191
REMARK   87  A    between atoms: _191  and  _192
REMARK   88  A    between atoms: _191  and  _194
REMARK   89  A    between atoms: _197  and  _199
REMARK   90  A    between atoms: _199  and  _200
REMARK   91  A    between atoms: _199  and  _202
REMARK   92  A    between atoms: _202  and  _203
REMARK   93  A    between atoms: _206  and  _208
REMARK   94  A    between atoms: _208  and  _209
REMARK   95  A    between atoms: _208  and  _211
REMARK   96  A    between atoms: _211  and  _212
REMARK   97  A    between atoms: _215  and  _217
REMARK   98  A    between atoms: _217  and  _218
REMARK   99  A    between atoms: _220  and  _222
REMARK  100  A    between atoms: _222  and  _223
REMARK  101  A    between atoms: _222  and  _225
REMARK  102  A    between atoms: _225  and  _226
REMARK  103  A    between atoms: _229  and  _231
REMARK  104  A    between atoms: _231  and  _232
REMARK  105  A    between atoms: _234  and  _236
REMARK  106  A    between atoms: _236  and  _237
REMARK  107  A    between atoms: _236  and  _239
REMARK  108  A    between atoms: _239  and  _240
REMARK  109  A    between atoms: _240  and  _241
REMARK  110  A    between atoms: _243  and  _245
REMARK  111  A    between atoms: _245  and  _246
REMARK  112  A    between atoms: _245  and  _248
REMARK  113  A    between atoms: _248  and  _249
REMARK  114  A    between atoms: _252  and  _254
REMARK  115  A    between atoms: _254  and  _255
REMARK  116  A    between atoms: _254  and  _257
REMARK  117  A    between atoms: _257  and  _258
REMARK  118  A    between atoms: _258  and  _259
REMARK  119  A    between atoms: _259  and  _260
REMARK  120  A    between atoms: _260  and  _261
REMARK  121  A    between atoms: _265  and  _267
REMARK  122  A    between atoms: _267  and  _268
REMARK  123  A    between atoms: _271  and  _273
REMARK  124  A    between atoms: _273  and  _274
REMARK  125  A    between atoms: _273  and  _276
REMARK  126  A    between atoms: _276  and  _277
REMARK  127  A    between atoms: _280  and  _282
REMARK  128  A    between atoms: _282  and  _283
REMARK  129  A    between atoms: _282  and  _285
REMARK  130  A    between atoms: _285  and  _286
REMARK  131  A    between atoms: _289  and  _291
REMARK  132  A    between atoms: _291  and  _292
REMARK  133  A    between atoms: _291  and  _294
REMARK  134  A    between atoms: _294  and  _295
REMARK  135  A    between atoms: _298  and  _300
REMARK  136  A    between atoms: _300  and  _301
REMARK  137  A    between atoms: _300  and  _303
REMARK  138  A    between atoms: _303  and  _304
REMARK  139  A    between atoms: _309  and  _311
REMARK  140  A    between atoms: _311  and  _312
REMARK  141  A    between atoms: _311  and  _314
REMARK  142  A    between atoms: _314  and  _315
REMARK  143  A    between atoms: _320  and  _322
REMARK  144  A    between atoms: _322  and  _323
REMARK  145  A    between atoms: _322  and  _325
REMARK  146  A    between atoms: _325  and  _326
REMARK  147  A    between atoms: _329  and  _331
REMARK  148  A    between atoms: _331  and  _332
REMARK  149  A    between atoms: _334  and  _336
REMARK  150  A    between atoms: _336  and  _337
REMARK  151  A    between atoms: _336  and  _339
REMARK  152  A    between atoms: _339  and  _340
REMARK  153  A    between atoms: _343  and  _345
REMARK  154  A    between atoms: _345  and  _346
REMARK  155  A    between atoms: _345  and  _348
REMARK  156  A    between atoms: _348  and  _349
REMARK  157  A    between atoms: _352  and  _354
REMARK  158  A    between atoms: _354  and  _355
REMARK  159  A    between atoms: _358  and  _360
REMARK  160  A    between atoms: _360  and  _361
REMARK  161  A    between atoms: _360  and  _363
REMARK  162  A    between atoms: _363  and  _364
REMARK  163  A    between atoms: _364  and  _365
REMARK  164  A    between atoms: _365  and  _366
REMARK  165  A    between atoms: _366  and  _367
REMARK  166  A    between atoms: _371  and  _373
REMARK  167  A    between atoms: _373  and  _374
REMARK  168  A    between atoms: _373  and  _376
REMARK  169  A    between atoms: _376  and  _377
REMARK  170  A    between atoms: _380  and  _382
REMARK  171  A    between atoms: _382  and  _383
REMARK  172  A    between atoms: _382  and  _385
REMARK  173  A    between atoms: _385  and  _386
REMARK  174  A    between atoms: _392  and  _394
REMARK  175  A    between atoms: _394  and  _395
REMARK  176  A    between atoms: _397  and  _399
REMARK  177  A    between atoms: _399  and  _400
REMARK  178  A    between atoms: _399  and  _402
REMARK  179  A    between atoms: _405  and  _407
REMARK  180  A    between atoms: _407  and  _408
REMARK  181  A    between atoms: _410  and  _412
REMARK  182  A    between atoms: _412  and  _413
REMARK  183  A    between atoms: _412  and  _415
REMARK  184  A    between atoms: _415  and  _416
REMARK  185  A    between atoms: _422  and  _424
REMARK  186  A    between atoms: _424  and  _425
REMARK  187  A    between atoms: _424  and  _427
REMARK  188  A    between atoms: _427  and  _428
REMARK  189  A    between atoms: _433  and  _434
REMARK  190  A    between atoms: _436  and  _438
REMARK  191  A    between atoms: _438  and  _439
REMARK  192  A    between atoms: _438  and  _441
REMARK  193  A    between atoms: _441  and  _442
REMARK  194  A    between atoms: _444  and  _446
REMARK  195  A    between atoms: _446  and  _447
REMARK  196  A    between atoms: _446  and  _449
REMARK  197  A    between atoms: _449  and  _450
REMARK  198  A    between atoms: _455  and  _456
REMARK  199  A    between atoms: _458  and  _460
REMARK  200  A    between atoms: _460  and  _461
REMARK  201  A    between atoms: _460  and  _463
REMARK  202  A    between atoms: _466  and  _468
REMARK  203  A    between atoms: _468  and  _469
REMARK  204  A    between atoms: _468  and  _471
REMARK  205  A    between atoms: _471  and  _472
REMARK  206  A    between atoms: _475  and  _477
REMARK  207  A    between atoms: _477  and  _478
REMARK  208  A    between atoms: _477  and  _480
REMARK  209  A    between atoms: _483  and  _485
REMARK  210  A    between atoms: _485  and  _486
REMARK  211  A    between atoms: _485  and  _488
REMARK  212  A    between atoms: _488  and  _489
REMARK  213  A    between atoms: _492  and  _494
REMARK  214  A    between atoms: _494  and  _495
REMARK  215  A    between atoms: _494  and  _497
REMARK  216  A    between atoms: _497  and  _498
REMARK  217  A    between atoms: _501  and  _503
REMARK  218  A    between atoms: _503  and  _504
REMARK  219  A    between atoms: _503  and  _506
REMARK  220  A    between atoms: _506  and  _507
REMARK  221  A    between atoms: _507  and  _508
REMARK  222  A    between atoms: _508  and  _509
REMARK  223  A    between atoms: _509  and  _510
REMARK  224  A    between atoms: _514  and  _516
REMARK  225  A    between atoms: _516  and  _517
REMARK  226  A    between atoms: _516  and  _519
REMARK  227  A    between atoms: _519  and  _520
REMARK  228  A    between atoms: _525  and  _527
REMARK  229  A    between atoms: _527  and  _528
REMARK  230  A    between atoms: _527  and  _530
REMARK  231  A    between atoms: _530  and  _531
REMARK  232  A    between atoms: _541  and  _543
REMARK  233  A    between atoms: _543  and  _544
REMARK  234  A    between atoms: _543  and  _546
REMARK  235  A    between atoms: _546  and  _547
REMARK  236  A    between atoms: _547  and  _548
REMARK  237  A    between atoms: _551  and  _553
REMARK  238  A    between atoms: _553  and  _554
REMARK  239  A    between atoms: _553  and  _556
REMARK  240  A    between atoms: _556  and  _557
REMARK  241  A    between atoms: _559  and  _561
REMARK  242  A    between atoms: _561  and  _562
REMARK  243  A    between atoms: _561  and  _564
REMARK  244  A    between atoms: _564  and  _565
REMARK  245  A    between atoms: _571  and  _573
REMARK  246  A    between atoms: _573  and  _574
REMARK  247  A    between atoms: _573  and  _576
REMARK  248  A    between atoms: _576  and  _577
REMARK  249  A    between atoms: _580  and  _582
REMARK  250  A    between atoms: _582  and  _583
REMARK  251  A    between atoms: _582  and  _585
REMARK  252  A    between atoms: _588  and  _590
REMARK  253  A    between atoms: _590  and  _591
REMARK  254  A    between atoms: _593  and  _595
REMARK  255  A    between atoms: _595  and  _596
REMARK  256  A    between atoms: _595  and  _598
REMARK  257  A    between atoms: _598  and  _599
REMARK  258  A    between atoms: _602  and  _604
REMARK  259  A    between atoms: _604  and  _605
REMARK  260  A    between atoms: _604  and  _607
REMARK  261  A    between atoms: _607  and  _608
REMARK  262  A    between atoms: _608  and  _609
REMARK  263  A    between atoms: _609  and  _610
REMARK  264  A    between atoms: _610  and  _611
REMARK  265  A    between atoms: _615  and  _617
REMARK  266  A    between atoms: _617  and  _618
REMARK  267  A    between atoms: _617  and  _620
REMARK                            x       y       z     vdW  Elec       q    Type
REMARK                         _______ _______ _______ _____ _____    ______ ____
ROOT
ATOM      1  O   HOH     1      15.992  -0.689  11.388  0.00  0.00    +0.000 OA
ENDROOT
TORSDOF 0
REMARK  Name = ../refined-set-2016/4nh7/4nh7_pocket.pdb
REMARK  267 active torsions:
REMARK  status: ('A' for Active; 'I' for Inactive)
REMARK    1  A    between atoms: _1  and  _3
REMARK    2  A    between atoms: _3  and  _4
REMARK    3  A    between atoms: _3  and  _6
REMARK    4  A    between atoms: _6  and  _7
REMARK    5  A    between atoms: _13  and  _15
REMARK    6  A    between atoms: _15  and  _16
REMARK    7  A    between atoms: _15  and  _18
REMARK    8  A    between atoms: _18  and  _19
REMARK    9  A    between atoms: _19  and  _20
REMARK   10  A    between atoms: _25  and  _27
REMARK   11  A    between atoms: _27  and  _28
REMARK   12  A    between atoms: _27  and  _30
REMARK   13  A    between atoms: _30  and  _31
REMARK   14  A    between atoms: _34  and  _36
REMARK   15  A    between atoms: _36  and  _37
REMARK   16  A    between atoms: _36  and  _39
REMARK   17  A    between atoms: _39  and  _40
REMARK   18  A    between atoms: _43  and  _45
REMARK   19  A    between atoms: _45  and  _46
REMARK   20  A    between atoms: _45  and  _48
REMARK   21  A    between atoms: _48  and  _49
REMARK   22  A    between atoms: _49  and  _50
REMARK   23  A    between atoms: _52  and  _54
REMARK   24  A    between atoms: _54  and  _55
REMARK   25  A    between atoms: _54  and  _57
REMARK   26  A    between atoms: _57  and  _58
REMARK   27  A    between atoms: _58  and  _59
REMARK   28  A    between atoms: _62  and  _64
REMARK   29  A    between atoms: _64  and  _65
REMARK   30  A    between atoms: _64  and  _67
REMARK   31  A    between atoms: _67  and  _68
REMARK   32  A    between atoms: _71  and  _73
REMARK   33  A    between atoms: _73  and  _74
REMARK   34  A    between atoms: _73  and  _76
REMARK   35  A    between atoms: _76  and  _77
REMARK   36  A    between atoms: _80  and  _82
REMARK   37  A    between atoms: _82  and  _83
REMARK   38  A    between atoms: _82  and  _85
REMARK   39  A    between atoms: _85  and  _86
REMARK   40  A    between atoms: _88  and  _90
REMARK   41  A    between atoms: _90  and  _91
REMARK   42  A    between atoms: _90  and  _93
REMARK   43  A    between atoms: _93  and  _94
REMARK   44  A    between atoms: _99  and  _101
REMARK   45  A    between atoms: _101  and  _102
REMARK   46  A    between atoms: _101  and  _104
REMARK   47  A    between atoms: _104  and  _105
REMARK   48  A    between atoms: _107  and  _109
REMARK   49  A    between atoms: _109  and  _110
REMARK   50  A    between atoms: _109  and  _112
REMARK   51  A    between atoms: _112  and  _113
REMARK   52  A    between atoms: _115  and  _117
REMARK   53  A    between atoms: _117  and  _118
REMARK   54  A    between atoms: _117  and  _120
REMARK   55  A    between atoms: _120  and  _121
REMARK   56  A    between atoms: _124  and  _126
REMARK   57  A    between atoms: _126  and  _127
REMARK   58  A    between atoms: _130  and  _132
REMARK   59  A    between atoms: _132  and  _133
REMARK   60  A    between atoms: _132  and  _135
REMARK   61  A    between atoms: _135  and  _136
REMARK   62  A    between atoms: _139  and  _141
REMARK   63  A    between atoms: _141  and  _142
REMARK   64  A    between atoms: _141  and  _144
REMARK   65  A    between atoms: _144  and  _145
REMARK   66  A    between atoms: _148  and  _150
REMARK   67  A    between atoms: _150  and  _151
REMARK   68  A    between atoms: _150  and  _153
REMARK   69  A    between atoms: _153  and  _154
REMARK   70  A    between atoms: _154  and  _155
REMARK   71  A    between atoms: _155  and  _156
REMARK   72  A    between atoms: _156  and  _157
REMARK   73  A    between atoms: _161  and  _163
REMARK   74  A    between atoms: _163  and  _164
REMARK   75  A    between atoms: _163  and  _166
REMARK   76  A    between atoms: _166  and  _167
REMARK   77  A    between atoms: _170  and  _172
REMARK   78  A    between atoms: _172  and  _173
REMARK   79  A    between atoms: _172  and  _175
REMARK   80  A    between atoms: _175  and  _176
REMARK   81  A    between atoms: _176  and  _177
REMARK   82  A    between atoms: _180  and  _182
REMARK   83  A    between atoms: _182  and  _183
REMARK   84  A    between atoms: _182  and  _185
REMARK   85  A    between atoms: _185  and  _186
REMARK   86  A    between atoms: _189  and  _191
REMARK   87  A    between atoms: _191  and  _192
REMARK   88  A    between atoms: _191  and  _194
REMARK   89  A    between atoms: _197  and  _199
REMARK   90  A    between atoms: _199  and  _200
REMARK   91  A    between atoms: _199  and  _202
REMARK   92  A    between atoms: _202  and  _203
REMARK   93  A    between atoms: _206  and  _208
REMARK   94  A    between atoms: _208  and  _209
REMARK   95  A    between atoms: _208  and  _211
REMARK   96  A    between atoms: _211  and  _212
REMARK   97  A    between atoms: _215  and  _217
REMARK   98  A    between atoms: _217  and  _218
REMARK   99  A    between atoms: _220  and  _222
REMARK  100  A    between atoms: _222  and  _223
REMARK  101  A    between atoms: _222  and  _225
REMARK  102  A    between atoms: _225  and  _226
REMARK  103  A    between atoms: _229  and  _231
REMARK  104  A    between atoms: _231  and  _232
REMARK  105  A    between atoms: _234  and  _236
REMARK  106  A    between atoms: _236  and  _237
REMARK  107  A    between atoms: _236  and  _239
REMARK  108  A    between atoms: _239  and  _240
REMARK  109  A    between atoms: _240  and  _241
REMARK  110  A    between atoms: _243  and  _245
REMARK  111  A    between atoms: _245  and  _246
REMARK  112  A    between atoms: _245  and  _248
REMARK  113  A    between atoms: _248  and  _249
REMARK  114  A    between atoms: _252  and  _254
REMARK  115  A    between atoms: _254  and  _255
REMARK  116  A    between atoms: _254  and  _257
REMARK  117  A    between atoms: _257  and  _258
REMARK  118  A    between atoms: _258  and  _259
REMARK  119  A    between atoms: _259  and  _260
REMARK  120  A    between atoms: _260  and  _261
REMARK  121  A    between atoms: _265  and  _267
REMARK  122  A    between atoms: _267  and  _268
REMARK  123  A    between atoms: _271  and  _273
REMARK  124  A    between atoms: _273  and  _274
REMARK  125  A    between atoms: _273  and  _276
REMARK  126  A    between atoms: _276  and  _277
REMARK  127  A    between atoms: _280  and  _282
REMARK  128  A    between atoms: _282  and  _283
REMARK  129  A    between atoms: _282  and  _285
REMARK  130  A    between atoms: _285  and  _286
REMARK  131  A    between atoms: _289  and  _291
REMARK  132  A    between atoms: _291  and  _292
REMARK  133  A    between atoms: _291  and  _294
REMARK  134  A    between atoms: _294  and  _295
REMARK  135  A    between atoms: _298  and  _300
REMARK  136  A    between atoms: _300  and  _301
REMARK  137  A    between atoms: _300  and  _303
REMARK  138  A    between atoms: _303  and  _304
REMARK  139  A    between atoms: _309  and  _311
REMARK  140  A    between atoms: _311  and  _312
REMARK  141  A    between atoms: _311  and  _314
REMARK  142  A    between atoms: _314  and  _315
REMARK  143  A    between atoms: _320  and  _322
REMARK  144  A    between atoms: _322  and  _323
REMARK  145  A    between atoms: _322  and  _325
REMARK  146  A    between atoms: _325  and  _326
REMARK  147  A    between atoms: _329  and  _331
REMARK  148  A    between atoms: _331  and  _332
REMARK  149  A    between atoms: _334  and  _336
REMARK  150  A    between atoms: _336  and  _337
REMARK  151  A    between atoms: _336  and  _339
REMARK  152  A    between atoms: _339  and  _340
REMARK  153  A    between atoms: _343  and  _345
REMARK  154  A    between atoms: _345  and  _346
REMARK  155  A    between atoms: _345  and  _348
REMARK  156  A    between atoms: _348  and  _349
REMARK  157  A    between atoms: _352  and  _354
REMARK  158  A    between atoms: _354  and  _355
REMARK  159  A    between atoms: _358  and  _360
REMARK  160  A    between atoms: _360  and  _361
REMARK  161  A    between atoms: _360  and  _363
REMARK  162  A    between atoms: _363  and  _364
REMARK  163  A    between atoms: _364  and  _365
REMARK  164  A    between atoms: _365  and  _366
REMARK  165  A    between atoms: _366  and  _367
REMARK  166  A    between atoms: _371  and  _373
REMARK  167  A    between atoms: _373  and  _374
REMARK  168  A    between atoms: _373  and  _376
REMARK  169  A    between atoms: _376  and  _377
REMARK  170  A    between atoms: _380  and  _382
REMARK  171  A    between atoms: _382  and  _383
REMARK  172  A    between atoms: _382  and  _385
REMARK  173  A    between atoms: _385  and  _386
REMARK  174  A    between atoms: _392  and  _394
REMARK  175  A    between atoms: _394  and  _395
REMARK  176  A    between atoms: _397  and  _399
REMARK  177  A    between atoms: _399  and  _400
REMARK  178  A    between atoms: _399  and  _402
REMARK  179  A    between atoms: _405  and  _407
REMARK  180  A    between atoms: _407  and  _408
REMARK  181  A    between atoms: _410  and  _412
REMARK  182  A    between atoms: _412  and  _413
REMARK  183  A    between atoms: _412  and  _415
REMARK  184  A    between atoms: _415  and  _416
REMARK  185  A    between atoms: _422  and  _424
REMARK  186  A    between atoms: _424  and  _425
REMARK  187  A    between atoms: _424  and  _427
REMARK  188  A    between atoms: _427  and  _428
REMARK  189  A    between atoms: _433  and  _434
REMARK  190  A    between atoms: _436  and  _438
REMARK  191  A    between atoms: _438  and  _439
REMARK  192  A    between atoms: _438  and  _441
REMARK  193  A    between atoms: _441  and  _442
REMARK  194  A    between atoms: _444  and  _446
REMARK  195  A    between atoms: _446  and  _447
REMARK  196  A    between atoms: _446  and  _449
REMARK  197  A    between atoms: _449  and  _450
REMARK  198  A    between atoms: _455  and  _456
REMARK  199  A    between atoms: _458  and  _460
REMARK  200  A    between atoms: _460  and  _461
REMARK  201  A    between atoms: _460  and  _463
REMARK  202  A    between atoms: _466  and  _468
REMARK  203  A    between atoms: _468  and  _469
REMARK  204  A    between atoms: _468  and  _471
REMARK  205  A    between atoms: _471  and  _472
REMARK  206  A    between atoms: _475  and  _477
REMARK  207  A    between atoms: _477  and  _478
REMARK  208  A    between atoms: _477  and  _480
REMARK  209  A    between atoms: _483  and  _485
REMARK  210  A    between atoms: _485  and  _486
REMARK  211  A    between atoms: _485  and  _488
REMARK  212  A    between atoms: _488  and  _489
REMARK  213  A    between atoms: _492  and  _494
REMARK  214  A    between atoms: _494  and  _495
REMARK  215  A    between atoms: _494  and  _497
REMARK  216  A    between atoms: _497  and  _498
REMARK  217  A    between atoms: _501  and  _503
REMARK  218  A    between atoms: _503  and  _504
REMARK  219  A    between atoms: _503  and  _506
REMARK  220  A    between atoms: _506  and  _507
REMARK  221  A    between atoms: _507  and  _508
REMARK  222  A    between atoms: _508  and  _509
REMARK  223  A    between atoms: _509  and  _510
REMARK  224  A    between atoms: _514  and  _516
REMARK  225  A    between atoms: _516  and  _517
REMARK  226  A    between atoms: _516  and  _519
REMARK  227  A    between atoms: _519  and  _520
REMARK  228  A    between atoms: _525  and  _527
REMARK  229  A    between atoms: _527  and  _528
REMARK  230  A    between atoms: _527  and  _530
REMARK  231  A    between atoms: _530  and  _531
REMARK  232  A    between atoms: _541  and  _543
REMARK  233  A    between atoms: _543  and  _544
REMARK  234  A    between atoms: _543  and  _546
REMARK  235  A    between atoms: _546  and  _547
REMARK  236  A    between atoms: _547  and  _548
REMARK  237  A    between atoms: _551  and  _553
REMARK  238  A    between atoms: _553  and  _554
REMARK  239  A    between atoms: _553  and  _556
REMARK  240  A    between atoms: _556  and  _557
REMARK  241  A    between atoms: _559  and  _561
REMARK  242  A    between atoms: _561  and  _562
REMARK  243  A    between atoms: _561  and  _564
REMARK  244  A    between atoms: _564  and  _565
REMARK  245  A    between atoms: _571  and  _573
REMARK  246  A    between atoms: _573  and  _574
REMARK  247  A    between atoms: _573  and  _576
REMARK  248  A    between atoms: _576  and  _577
REMARK  249  A    between atoms: _580  and  _582
REMARK  250  A    between atoms: _582  and  _583
REMARK  251  A    between atoms: _582  and  _585
REMARK  252  A    between atoms: _588  and  _590
REMARK  253  A    between atoms: _590  and  _591
REMARK  254  A    between atoms: _593  and  _595
REMARK  255  A    between atoms: _595  and  _596
REMARK  256  A    between atoms: _595  and  _598
REMARK  257  A    between atoms: _598  and  _599
REMARK  258  A    between atoms: _602  and  _604
REMARK  259  A    between atoms: _604  and  _605
REMARK  260  A    between atoms: _604  and  _607
REMARK  261  A    between atoms: _607  and  _608
REMARK  262  A    between atoms: _608  and  _609
REMARK  263  A    between atoms: _609  and  _610
REMARK  264  A    between atoms: _610  and  _611
REMARK  265  A    between atoms: _615  and  _617
REMARK  266  A    between atoms: _617  and  _618
REMARK  267  A    between atoms: _617  and  _620
REMARK                            x       y       z     vdW  Elec       q    Type
REMARK                         _______ _______ _______ _____ _____    ______ ____
ROOT
ATOM      1  O   HOH     1      16.767   4.904  22.135  0.00  0.00    +0.000 OA
ENDROOT
TORSDOF 0
REMARK  Name = ../refined-set-2016/4nh7/4nh7_pocket.pdb
REMARK  267 active torsions:
REMARK  status: ('A' for Active; 'I' for Inactive)
REMARK    1  A    between atoms: _1  and  _3
REMARK    2  A    between atoms: _3  and  _4
REMARK    3  A    between atoms: _3  and  _6
REMARK    4  A    between atoms: _6  and  _7
REMARK    5  A    between atoms: _13  and  _15
REMARK    6  A    between atoms: _15  and  _16
REMARK    7  A    between atoms: _15  and  _18
REMARK    8  A    between atoms: _18  and  _19
REMARK    9  A    between atoms: _19  and  _20
REMARK   10  A    between atoms: _25  and  _27
REMARK   11  A    between atoms: _27  and  _28
REMARK   12  A    between atoms: _27  and  _30
REMARK   13  A    between atoms: _30  and  _31
REMARK   14  A    between atoms: _34  and  _36
REMARK   15  A    between atoms: _36  and  _37
REMARK   16  A    between atoms: _36  and  _39
REMARK   17  A    between atoms: _39  and  _40
REMARK   18  A    between atoms: _43  and  _45
REMARK   19  A    between atoms: _45  and  _46
REMARK   20  A    between atoms: _45  and  _48
REMARK   21  A    between atoms: _48  and  _49
REMARK   22  A    between atoms: _49  and  _50
REMARK   23  A    between atoms: _52  and  _54
REMARK   24  A    between atoms: _54  and  _55
REMARK   25  A    between atoms: _54  and  _57
REMARK   26  A    between atoms: _57  and  _58
REMARK   27  A    between atoms: _58  and  _59
REMARK   28  A    between atoms: _62  and  _64
REMARK   29  A    between atoms: _64  and  _65
REMARK   30  A    between atoms: _64  and  _67
REMARK   31  A    between atoms: _67  and  _68
REMARK   32  A    between atoms: _71  and  _73
REMARK   33  A    between atoms: _73  and  _74
REMARK   34  A    between atoms: _73  and  _76
REMARK   35  A    between atoms: _76  and  _77
REMARK   36  A    between atoms: _80  and  _82
REMARK   37  A    between atoms: _82  and  _83
REMARK   38  A    between atoms: _82  and  _85
REMARK   39  A    between atoms: _85  and  _86
REMARK   40  A    between atoms: _88  and  _90
REMARK   41  A    between atoms: _90  and  _91
REMARK   42  A    between atoms: _90  and  _93
REMARK   43  A    between atoms: _93  and  _94
REMARK   44  A    between atoms: _99  and  _101
REMARK   45  A    between atoms: _101  and  _102
REMARK   46  A    between atoms: _101  and  _104
REMARK   47  A    between atoms: _104  and  _105
REMARK   48  A    between atoms: _107  and  _109
REMARK   49  A    between atoms: _109  and  _110
REMARK   50  A    between atoms: _109  and  _112
REMARK   51  A    between atoms: _112  and  _113
REMARK   52  A    between atoms: _115  and  _117
REMARK   53  A    between atoms: _117  and  _118
REMARK   54  A    between atoms: _117  and  _120
REMARK   55  A    between atoms: _120  and  _121
REMARK   56  A    between atoms: _124  and  _126
REMARK   57  A    between atoms: _126  and  _127
REMARK   58  A    between atoms: _130  and  _132
REMARK   59  A    between atoms: _132  and  _133
REMARK   60  A    between atoms: _132  and  _135
REMARK   61  A    between atoms: _135  and  _136
REMARK   62  A    between atoms: _139  and  _141
REMARK   63  A    between atoms: _141  and  _142
REMARK   64  A    between atoms: _141  and  _144
REMARK   65  A    between atoms: _144  and  _145
REMARK   66  A    between atoms: _148  and  _150
REMARK   67  A    between atoms: _150  and  _151
REMARK   68  A    between atoms: _150  and  _153
REMARK   69  A    between atoms: _153  and  _154
REMARK   70  A    between atoms: _154  and  _155
REMARK   71  A    between atoms: _155  and  _156
REMARK   72  A    between atoms: _156  and  _157
REMARK   73  A    between atoms: _161  and  _163
REMARK   74  A    between atoms: _163  and  _164
REMARK   75  A    between atoms: _163  and  _166
REMARK   76  A    between atoms: _166  and  _167
REMARK   77  A    between atoms: _170  and  _172
REMARK   78  A    between atoms: _172  and  _173
REMARK   79  A    between atoms: _172  and  _175
REMARK   80  A    between atoms: _175  and  _176
REMARK   81  A    between atoms: _176  and  _177
REMARK   82  A    between atoms: _180  and  _182
REMARK   83  A    between atoms: _182  and  _183
REMARK   84  A    between atoms: _182  and  _185
REMARK   85  A    between atoms: _185  and  _186
REMARK   86  A    between atoms: _189  and  _191
REMARK   87  A    between atoms: _191  and  _192
REMARK   88  A    between atoms: _191  and  _194
REMARK   89  A    between atoms: _197  and  _199
REMARK   90  A    between atoms: _199  and  _200
REMARK   91  A    between atoms: _199  and  _202
REMARK   92  A    between atoms: _202  and  _203
REMARK   93  A    between atoms: _206  and  _208
REMARK   94  A    between atoms: _208  and  _209
REMARK   95  A    between atoms: _208  and  _211
REMARK   96  A    between atoms: _211  and  _212
REMARK   97  A    between atoms: _215  and  _217
REMARK   98  A    between atoms: _217  and  _218
REMARK   99  A    between atoms: _220  and  _222
REMARK  100  A    between atoms: _222  and  _223
REMARK  101  A    between atoms: _222  and  _225
REMARK  102  A    between atoms: _225  and  _226
REMARK  103  A    between atoms: _229  and  _231
REMARK  104  A    between atoms: _231  and  _232
REMARK  105  A    between atoms: _234  and  _236
REMARK  106  A    between atoms: _236  and  _237
REMARK  107  A    between atoms: _236  and  _239
REMARK  108  A    between atoms: _239  and  _240
REMARK  109  A    between atoms: _240  and  _241
REMARK  110  A    between atoms: _243  and  _245
REMARK  111  A    between atoms: _245  and  _246
REMARK  112  A    between atoms: _245  and  _248
REMARK  113  A    between atoms: _248  and  _249
REMARK  114  A    between atoms: _252  and  _254
REMARK  115  A    between atoms: _254  and  _255
REMARK  116  A    between atoms: _254  and  _257
REMARK  117  A    between atoms: _257  and  _258
REMARK  118  A    between atoms: _258  and  _259
REMARK  119  A    between atoms: _259  and  _260
REMARK  120  A    between atoms: _260  and  _261
REMARK  121  A    between atoms: _265  and  _267
REMARK  122  A    between atoms: _267  and  _268
REMARK  123  A    between atoms: _271  and  _273
REMARK  124  A    between atoms: _273  and  _274
REMARK  125  A    between atoms: _273  and  _276
REMARK  126  A    between atoms: _276  and  _277
REMARK  127  A    between atoms: _280  and  _282
REMARK  128  A    between atoms: _282  and  _283
REMARK  129  A    between atoms: _282  and  _285
REMARK  130  A    between atoms: _285  and  _286
REMARK  131  A    between atoms: _289  and  _291
REMARK  132  A    between atoms: _291  and  _292
REMARK  133  A    between atoms: _291  and  _294
REMARK  134  A    between atoms: _294  and  _295
REMARK  135  A    between atoms: _298  and  _300
REMARK  136  A    between atoms: _300  and  _301
REMARK  137  A    between atoms: _300  and  _303
REMARK  138  A    between atoms: _303  and  _304
REMARK  139  A    between atoms: _309  and  _311
REMARK  140  A    between atoms: _311  and  _312
REMARK  141  A    between atoms: _311  and  _314
REMARK  142  A    between atoms: _314  and  _315
REMARK  143  A    between atoms: _320  and  _322
REMARK  144  A    between atoms: _322  and  _323
REMARK  145  A    between atoms: _322  and  _325
REMARK  146  A    between atoms: _325  and  _326
REMARK  147  A    between atoms: _329  and  _331
REMARK  148  A    between atoms: _331  and  _332
REMARK  149  A    between atoms: _334  and  _336
REMARK  150  A    between atoms: _336  and  _337
REMARK  151  A    between atoms: _336  and  _339
REMARK  152  A    between atoms: _339  and  _340
REMARK  153  A    between atoms: _343  and  _345
REMARK  154  A    between atoms: _345  and  _346
REMARK  155  A    between atoms: _345  and  _348
REMARK  156  A    between atoms: _348  and  _349
REMARK  157  A    between atoms: _352  and  _354
REMARK  158  A    between atoms: _354  and  _355
REMARK  159  A    between atoms: _358  and  _360
REMARK  160  A    between atoms: _360  and  _361
REMARK  161  A    between atoms: _360  and  _363
REMARK  162  A    between atoms: _363  and  _364
REMARK  163  A    between atoms: _364  and  _365
REMARK  164  A    between atoms: _365  and  _366
REMARK  165  A    between atoms: _366  and  _367
REMARK  166  A    between atoms: _371  and  _373
REMARK  167  A    between atoms: _373  and  _374
REMARK  168  A    between atoms: _373  and  _376
REMARK  169  A    between atoms: _376  and  _377
REMARK  170  A    between atoms: _380  and  _382
REMARK  171  A    between atoms: _382  and  _383
REMARK  172  A    between atoms: _382  and  _385
REMARK  173  A    between atoms: _385  and  _386
REMARK  174  A    between atoms: _392  and  _394
REMARK  175  A    between atoms: _394  and  _395
REMARK  176  A    between atoms: _397  and  _399
REMARK  177  A    between atoms: _399  and  _400
REMARK  178  A    between atoms: _399  and  _402
REMARK  179  A    between atoms: _405  and  _407
REMARK  180  A    between atoms: _407  and  _408
REMARK  181  A    between atoms: _410  and  _412
REMARK  182  A    between atoms: _412  and  _413
REMARK  183  A    between atoms: _412  and  _415
REMARK  184  A    between atoms: _415  and  _416
REMARK  185  A    between atoms: _422  and  _424
REMARK  186  A    between atoms: _424  and  _425
REMARK  187  A    between atoms: _424  and  _427
REMARK  188  A    between atoms: _427  and  _428
REMARK  189  A    between atoms: _433  and  _434
REMARK  190  A    between atoms: _436  and  _438
REMARK  191  A    between atoms: _438  and  _439
REMARK  192  A    between atoms: _438  and  _441
REMARK  193  A    between atoms: _441  and  _442
REMARK  194  A    between atoms: _444  and  _446
REMARK  195  A    between atoms: _446  and  _447
REMARK  196  A    between atoms: _446  and  _449
REMARK  197  A    between atoms: _449  and  _450
REMARK  198  A    between atoms: _455  and  _456
REMARK  199  A    between atoms: _458  and  _460
REMARK  200  A    between atoms: _460  and  _461
REMARK  201  A    between atoms: _460  and  _463
REMARK  202  A    between atoms: _466  and  _468
REMARK  203  A    between atoms: _468  and  _469
REMARK  204  A    between atoms: _468  and  _471
REMARK  205  A    between atoms: _471  and  _472
REMARK  206  A    between atoms: _475  and  _477
REMARK  207  A    between atoms: _477  and  _478
REMARK  208  A    between atoms: _477  and  _480
REMARK  209  A    between atoms: _483  and  _485
REMARK  210  A    between atoms: _485  and  _486
REMARK  211  A    between atoms: _485  and  _488
REMARK  212  A    between atoms: _488  and  _489
REMARK  213  A    between atoms: _492  and  _494
REMARK  214  A    between atoms: _494  and  _495
REMARK  215  A    between atoms: _494  and  _497
REMARK  216  A    between atoms: _497  and  _498
REMARK  217  A    between atoms: _501  and  _503
REMARK  218  A    between atoms: _503  and  _504
REMARK  219  A    between atoms: _503  and  _506
REMARK  220  A    between atoms: _506  and  _507
REMARK  221  A    between atoms: _507  and  _508
REMARK  222  A    between atoms: _508  and  _509
REMARK  223  A    between atoms: _509  and  _510
REMARK  224  A    between atoms: _514  and  _516
REMARK  225  A    between atoms: _516  and  _517
REMARK  226  A    between atoms: _516  and  _519
REMARK  227  A    between atoms: _519  and  _520
REMARK  228  A    between atoms: _525  and  _527
REMARK  229  A    between atoms: _527  and  _528
REMARK  230  A    between atoms: _527  and  _530
REMARK  231  A    between atoms: _530  and  _531
REMARK  232  A    between atoms: _541  and  _543
REMARK  233  A    between atoms: _543  and  _544
REMARK  234  A    between atoms: _543  and  _546
REMARK  235  A    between atoms: _546  and  _547
REMARK  236  A    between atoms: _547  and  _548
REMARK  237  A    between atoms: _551  and  _553
REMARK  238  A    between atoms: _553  and  _554
REMARK  239  A    between atoms: _553  and  _556
REMARK  240  A    between atoms: _556  and  _557
REMARK  241  A    between atoms: _559  and  _561
REMARK  242  A    between atoms: _561  and  _562
REMARK  243  A    between atoms: _561  and  _564
REMARK  244  A    between atoms: _564  and  _565
REMARK  245  A    between atoms: _571  and  _573
REMARK  246  A    between atoms: _573  and  _574
REMARK  247  A    between atoms: _573  and  _576
REMARK  248  A    between atoms: _576  and  _577
REMARK  249  A    between atoms: _580  and  _582
REMARK  250  A    between atoms: _582  and  _583
REMARK  251  A    between atoms: _582  and  _585
REMARK  252  A    between atoms: _588  and  _590
REMARK  253  A    between atoms: _590  and  _591
REMARK  254  A    between atoms: _593  and  _595
REMARK  255  A    between atoms: _595  and  _596
REMARK  256  A    between atoms: _595  and  _598
REMARK  257  A    between atoms: _598  and  _599
REMARK  258  A    between atoms: _602  and  _604
REMARK  259  A    between atoms: _604  and  _605
REMARK  260  A    between atoms: _604  and  _607
REMARK  261  A    between atoms: _607  and  _608
REMARK  262  A    between atoms: _608  and  _609
REMARK  263  A    between atoms: _609  and  _610
REMARK  264  A    between atoms: _610  and  _611
REMARK  265  A    between atoms: _615  and  _617
REMARK  266  A    between atoms: _617  and  _618
REMARK  267  A    between atoms: _617  and  _620
REMARK                            x       y       z     vdW  Elec       q    Type
REMARK                         _______ _______ _______ _____ _____    ______ ____
ROOT
ATOM      1  O   HOH     1      23.057  13.603  14.063  0.00  0.00    +0.000 OA
ENDROOT
TORSDOF 0
REMARK  Name = ../refined-set-2016/4nh7/4nh7_pocket.pdb
REMARK  267 active torsions:
REMARK  status: ('A' for Active; 'I' for Inactive)
REMARK    1  A    between atoms: _1  and  _3
REMARK    2  A    between atoms: _3  and  _4
REMARK    3  A    between atoms: _3  and  _6
REMARK    4  A    between atoms: _6  and  _7
REMARK    5  A    between atoms: _13  and  _15
REMARK    6  A    between atoms: _15  and  _16
REMARK    7  A    between atoms: _15  and  _18
REMARK    8  A    between atoms: _18  and  _19
REMARK    9  A    between atoms: _19  and  _20
REMARK   10  A    between atoms: _25  and  _27
REMARK   11  A    between atoms: _27  and  _28
REMARK   12  A    between atoms: _27  and  _30
REMARK   13  A    between atoms: _30  and  _31
REMARK   14  A    between atoms: _34  and  _36
REMARK   15  A    between atoms: _36  and  _37
REMARK   16  A    between atoms: _36  and  _39
REMARK   17  A    between atoms: _39  and  _40
REMARK   18  A    between atoms: _43  and  _45
REMARK   19  A    between atoms: _45  and  _46
REMARK   20  A    between atoms: _45  and  _48
REMARK   21  A    between atoms: _48  and  _49
REMARK   22  A    between atoms: _49  and  _50
REMARK   23  A    between atoms: _52  and  _54
REMARK   24  A    between atoms: _54  and  _55
REMARK   25  A    between atoms: _54  and  _57
REMARK   26  A    between atoms: _57  and  _58
REMARK   27  A    between atoms: _58  and  _59
REMARK   28  A    between atoms: _62  and  _64
REMARK   29  A    between atoms: _64  and  _65
REMARK   30  A    between atoms: _64  and  _67
REMARK   31  A    between atoms: _67  and  _68
REMARK   32  A    between atoms: _71  and  _73
REMARK   33  A    between atoms: _73  and  _74
REMARK   34  A    between atoms: _73  and  _76
REMARK   35  A    between atoms: _76  and  _77
REMARK   36  A    between atoms: _80  and  _82
REMARK   37  A    between atoms: _82  and  _83
REMARK   38  A    between atoms: _82  and  _85
REMARK   39  A    between atoms: _85  and  _86
REMARK   40  A    between atoms: _88  and  _90
REMARK   41  A    between atoms: _90  and  _91
REMARK   42  A    between atoms: _90  and  _93
REMARK   43  A    between atoms: _93  and  _94
REMARK   44  A    between atoms: _99  and  _101
REMARK   45  A    between atoms: _101  and  _102
REMARK   46  A    between atoms: _101  and  _104
REMARK   47  A    between atoms: _104  and  _105
REMARK   48  A    between atoms: _107  and  _109
REMARK   49  A    between atoms: _109  and  _110
REMARK   50  A    between atoms: _109  and  _112
REMARK   51  A    between atoms: _112  and  _113
REMARK   52  A    between atoms: _115  and  _117
REMARK   53  A    between atoms: _117  and  _118
REMARK   54  A    between atoms: _117  and  _120
REMARK   55  A    between atoms: _120  and  _121
REMARK   56  A    between atoms: _124  and  _126
REMARK   57  A    between atoms: _126  and  _127
REMARK   58  A    between atoms: _130  and  _132
REMARK   59  A    between atoms: _132  and  _133
REMARK   60  A    between atoms: _132  and  _135
REMARK   61  A    between atoms: _135  and  _136
REMARK   62  A    between atoms: _139  and  _141
REMARK   63  A    between atoms: _141  and  _142
REMARK   64  A    between atoms: _141  and  _144
REMARK   65  A    between atoms: _144  and  _145
REMARK   66  A    between atoms: _148  and  _150
REMARK   67  A    between atoms: _150  and  _151
REMARK   68  A    between atoms: _150  and  _153
REMARK   69  A    between atoms: _153  and  _154
REMARK   70  A    between atoms: _154  and  _155
REMARK   71  A    between atoms: _155  and  _156
REMARK   72  A    between atoms: _156  and  _157
REMARK   73  A    between atoms: _161  and  _163
REMARK   74  A    between atoms: _163  and  _164
REMARK   75  A    between atoms: _163  and  _166
REMARK   76  A    between atoms: _166  and  _167
REMARK   77  A    between atoms: _170  and  _172
REMARK   78  A    between atoms: _172  and  _173
REMARK   79  A    between atoms: _172  and  _175
REMARK   80  A    between atoms: _175  and  _176
REMARK   81  A    between atoms: _176  and  _177
REMARK   82  A    between atoms: _180  and  _182
REMARK   83  A    between atoms: _182  and  _183
REMARK   84  A    between atoms: _182  and  _185
REMARK   85  A    between atoms: _185  and  _186
REMARK   86  A    between atoms: _189  and  _191
REMARK   87  A    between atoms: _191  and  _192
REMARK   88  A    between atoms: _191  and  _194
REMARK   89  A    between atoms: _197  and  _199
REMARK   90  A    between atoms: _199  and  _200
REMARK   91  A    between atoms: _199  and  _202
REMARK   92  A    between atoms: _202  and  _203
REMARK   93  A    between atoms: _206  and  _208
REMARK   94  A    between atoms: _208  and  _209
REMARK   95  A    between atoms: _208  and  _211
REMARK   96  A    between atoms: _211  and  _212
REMARK   97  A    between atoms: _215  and  _217
REMARK   98  A    between atoms: _217  and  _218
REMARK   99  A    between atoms: _220  and  _222
REMARK  100  A    between atoms: _222  and  _223
REMARK  101  A    between atoms: _222  and  _225
REMARK  102  A    between atoms: _225  and  _226
REMARK  103  A    between atoms: _229  and  _231
REMARK  104  A    between atoms: _231  and  _232
REMARK  105  A    between atoms: _234  and  _236
REMARK  106  A    between atoms: _236  and  _237
REMARK  107  A    between atoms: _236  and  _239
REMARK  108  A    between atoms: _239  and  _240
REMARK  109  A    between atoms: _240  and  _241
REMARK  110  A    between atoms: _243  and  _245
REMARK  111  A    between atoms: _245  and  _246
REMARK  112  A    between atoms: _245  and  _248
REMARK  113  A    between atoms: _248  and  _249
REMARK  114  A    between atoms: _252  and  _254
REMARK  115  A    between atoms: _254  and  _255
REMARK  116  A    between atoms: _254  and  _257
REMARK  117  A    between atoms: _257  and  _258
REMARK  118  A    between atoms: _258  and  _259
REMARK  119  A    between atoms: _259  and  _260
REMARK  120  A    between atoms: _260  and  _261
REMARK  121  A    between atoms: _265  and  _267
REMARK  122  A    between atoms: _267  and  _268
REMARK  123  A    between atoms: _271  and  _273
REMARK  124  A    between atoms: _273  and  _274
REMARK  125  A    between atoms: _273  and  _276
REMARK  126  A    between atoms: _276  and  _277
REMARK  127  A    between atoms: _280  and  _282
REMARK  128  A    between atoms: _282  and  _283
REMARK  129  A    between atoms: _282  and  _285
REMARK  130  A    between atoms: _285  and  _286
REMARK  131  A    between atoms: _289  and  _291
REMARK  132  A    between atoms: _291  and  _292
REMARK  133  A    between atoms: _291  and  _294
REMARK  134  A    between atoms: _294  and  _295
REMARK  135  A    between atoms: _298  and  _300
REMARK  136  A    between atoms: _300  and  _301
REMARK  137  A    between atoms: _300  and  _303
REMARK  138  A    between atoms: _303  and  _304
REMARK  139  A    between atoms: _309  and  _311
REMARK  140  A    between atoms: _311  and  _312
REMARK  141  A    between atoms: _311  and  _314
REMARK  142  A    between atoms: _314  and  _315
REMARK  143  A    between atoms: _320  and  _322
REMARK  144  A    between atoms: _322  and  _323
REMARK  145  A    between atoms: _322  and  _325
REMARK  146  A    between atoms: _325  and  _326
REMARK  147  A    between atoms: _329  and  _331
REMARK  148  A    between atoms: _331  and  _332
REMARK  149  A    between atoms: _334  and  _336
REMARK  150  A    between atoms: _336  and  _337
REMARK  151  A    between atoms: _336  and  _339
REMARK  152  A    between atoms: _339  and  _340
REMARK  153  A    between atoms: _343  and  _345
REMARK  154  A    between atoms: _345  and  _346
REMARK  155  A    between atoms: _345  and  _348
REMARK  156  A    between atoms: _348  and  _349
REMARK  157  A    between atoms: _352  and  _354
REMARK  158  A    between atoms: _354  and  _355
REMARK  159  A    between atoms: _358  and  _360
REMARK  160  A    between atoms: _360  and  _361
REMARK  161  A    between atoms: _360  and  _363
REMARK  162  A    between atoms: _363  and  _364
REMARK  163  A    between atoms: _364  and  _365
REMARK  164  A    between atoms: _365  and  _366
REMARK  165  A    between atoms: _366  and  _367
REMARK  166  A    between atoms: _371  and  _373
REMARK  167  A    between atoms: _373  and  _374
REMARK  168  A    between atoms: _373  and  _376
REMARK  169  A    between atoms: _376  and  _377
REMARK  170  A    between atoms: _380  and  _382
REMARK  171  A    between atoms: _382  and  _383
REMARK  172  A    between atoms: _382  and  _385
REMARK  173  A    between atoms: _385  and  _386
REMARK  174  A    between atoms: _392  and  _394
REMARK  175  A    between atoms: _394  and  _395
REMARK  176  A    between atoms: _397  and  _399
REMARK  177  A    between atoms: _399  and  _400
REMARK  178  A    between atoms: _399  and  _402
REMARK  179  A    between atoms: _405  and  _407
REMARK  180  A    between atoms: _407  and  _408
REMARK  181  A    between atoms: _410  and  _412
REMARK  182  A    between atoms: _412  and  _413
REMARK  183  A    between atoms: _412  and  _415
REMARK  184  A    between atoms: _415  and  _416
REMARK  185  A    between atoms: _422  and  _424
REMARK  186  A    between atoms: _424  and  _425
REMARK  187  A    between atoms: _424  and  _427
REMARK  188  A    between atoms: _427  and  _428
REMARK  189  A    between atoms: _433  and  _434
REMARK  190  A    between atoms: _436  and  _438
REMARK  191  A    between atoms: _438  and  _439
REMARK  192  A    between atoms: _438  and  _441
REMARK  193  A    between atoms: _441  and  _442
REMARK  194  A    between atoms: _444  and  _446
REMARK  195  A    between atoms: _446  and  _447
REMARK  196  A    between atoms: _446  and  _449
REMARK  197  A    between atoms: _449  and  _450
REMARK  198  A    between atoms: _455  and  _456
REMARK  199  A    between atoms: _458  and  _460
REMARK  200  A    between atoms: _460  and  _461
REMARK  201  A    between atoms: _460  and  _463
REMARK  202  A    between atoms: _466  and  _468
REMARK  203  A    between atoms: _468  and  _469
REMARK  204  A    between atoms: _468  and  _471
REMARK  205  A    between atoms: _471  and  _472
REMARK  206  A    between atoms: _475  and  _477
REMARK  207  A    between atoms: _477  and  _478
REMARK  208  A    between atoms: _477  and  _480
REMARK  209  A    between atoms: _483  and  _485
REMARK  210  A    between atoms: _485  and  _486
REMARK  211  A    between atoms: _485  and  _488
REMARK  212  A    between atoms: _488  and  _489
REMARK  213  A    between atoms: _492  and  _494
REMARK  214  A    between atoms: _494  and  _495
REMARK  215  A    between atoms: _494  and  _497
REMARK  216  A    between atoms: _497  and  _498
REMARK  217  A    between atoms: _501  and  _503
REMARK  218  A    between atoms: _503  and  _504
REMARK  219  A    between atoms: _503  and  _506
REMARK  220  A    between atoms: _506  and  _507
REMARK  221  A    between atoms: _507  and  _508
REMARK  222  A    between atoms: _508  and  _509
REMARK  223  A    between atoms: _509  and  _510
REMARK  224  A    between atoms: _514  and  _516
REMARK  225  A    between atoms: _516  and  _517
REMARK  226  A    between atoms: _516  and  _519
REMARK  227  A    between atoms: _519  and  _520
REMARK  228  A    between atoms: _525  and  _527
REMARK  229  A    between atoms: _527  and  _528
REMARK  230  A    between atoms: _527  and  _530
REMARK  231  A    between atoms: _530  and  _531
REMARK  232  A    between atoms: _541  and  _543
REMARK  233  A    between atoms: _543  and  _544
REMARK  234  A    between atoms: _543  and  _546
REMARK  235  A    between atoms: _546  and  _547
REMARK  236  A    between atoms: _547  and  _548
REMARK  237  A    between atoms: _551  and  _553
REMARK  238  A    between atoms: _553  and  _554
REMARK  239  A    between atoms: _553  and  _556
REMARK  240  A    between atoms: _556  and  _557
REMARK  241  A    between atoms: _559  and  _561
REMARK  242  A    between atoms: _561  and  _562
REMARK  243  A    between atoms: _561  and  _564
REMARK  244  A    between atoms: _564  and  _565
REMARK  245  A    between atoms: _571  and  _573
REMARK  246  A    between atoms: _573  and  _574
REMARK  247  A    between atoms: _573  and  _576
REMARK  248  A    between atoms: _576  and  _577
REMARK  249  A    between atoms: _580  and  _582
REMARK  250  A    between atoms: _582  and  _583
REMARK  251  A    between atoms: _582  and  _585
REMARK  252  A    between atoms: _588  and  _590
REMARK  253  A    between atoms: _590  and  _591
REMARK  254  A    between atoms: _593  and  _595
REMARK  255  A    between atoms: _595  and  _596
REMARK  256  A    between atoms: _595  and  _598
REMARK  257  A    between atoms: _598  and  _599
REMARK  258  A    between atoms: _602  and  _604
REMARK  259  A    between atoms: _604  and  _605
REMARK  260  A    between atoms: _604  and  _607
REMARK  261  A    between atoms: _607  and  _608
REMARK  262  A    between atoms: _608  and  _609
REMARK  263  A    between atoms: _609  and  _610
REMARK  264  A    between atoms: _610  and  _611
REMARK  265  A    between atoms: _615  and  _617
REMARK  266  A    between atoms: _617  and  _618
REMARK  267  A    between atoms: _617  and  _620
REMARK                            x       y       z     vdW  Elec       q    Type
REMARK                         _______ _______ _______ _____ _____    ______ ____
ROOT
ATOM      1  O   HOH     1      12.316   5.315  11.599  0.00  0.00    +0.000 OA
ENDROOT
TORSDOF 0
REMARK  Name = ../refined-set-2016/4nh7/4nh7_pocket.pdb
REMARK  267 active torsions:
REMARK  status: ('A' for Active; 'I' for Inactive)
REMARK    1  A    between atoms: _1  and  _3
REMARK    2  A    between atoms: _3  and  _4
REMARK    3  A    between atoms: _3  and  _6
REMARK    4  A    between atoms: _6  and  _7
REMARK    5  A    between atoms: _13  and  _15
REMARK    6  A    between atoms: _15  and  _16
REMARK    7  A    between atoms: _15  and  _18
REMARK    8  A    between atoms: _18  and  _19
REMARK    9  A    between atoms: _19  and  _20
REMARK   10  A    between atoms: _25  and  _27
REMARK   11  A    between atoms: _27  and  _28
REMARK   12  A    between atoms: _27  and  _30
REMARK   13  A    between atoms: _30  and  _31
REMARK   14  A    between atoms: _34  and  _36
REMARK   15  A    between atoms: _36  and  _37
REMARK   16  A    between atoms: _36  and  _39
REMARK   17  A    between atoms: _39  and  _40
REMARK   18  A    between atoms: _43  and  _45
REMARK   19  A    between atoms: _45  and  _46
REMARK   20  A    between atoms: _45  and  _48
REMARK   21  A    between atoms: _48  and  _49
REMARK   22  A    between atoms: _49  and  _50
REMARK   23  A    between atoms: _52  and  _54
REMARK   24  A    between atoms: _54  and  _55
REMARK   25  A    between atoms: _54  and  _57
REMARK   26  A    between atoms: _57  and  _58
REMARK   27  A    between atoms: _58  and  _59
REMARK   28  A    between atoms: _62  and  _64
REMARK   29  A    between atoms: _64  and  _65
REMARK   30  A    between atoms: _64  and  _67
REMARK   31  A    between atoms: _67  and  _68
REMARK   32  A    between atoms: _71  and  _73
REMARK   33  A    between atoms: _73  and  _74
REMARK   34  A    between atoms: _73  and  _76
REMARK   35  A    between atoms: _76  and  _77
REMARK   36  A    between atoms: _80  and  _82
REMARK   37  A    between atoms: _82  and  _83
REMARK   38  A    between atoms: _82  and  _85
REMARK   39  A    between atoms: _85  and  _86
REMARK   40  A    between atoms: _88  and  _90
REMARK   41  A    between atoms: _90  and  _91
REMARK   42  A    between atoms: _90  and  _93
REMARK   43  A    between atoms: _93  and  _94
REMARK   44  A    between atoms: _99  and  _101
REMARK   45  A    between atoms: _101  and  _102
REMARK   46  A    between atoms: _101  and  _104
REMARK   47  A    between atoms: _104  and  _105
REMARK   48  A    between atoms: _107  and  _109
REMARK   49  A    between atoms: _109  and  _110
REMARK   50  A    between atoms: _109  and  _112
REMARK   51  A    between atoms: _112  and  _113
REMARK   52  A    between atoms: _115  and  _117
REMARK   53  A    between atoms: _117  and  _118
REMARK   54  A    between atoms: _117  and  _120
REMARK   55  A    between atoms: _120  and  _121
REMARK   56  A    between atoms: _124  and  _126
REMARK   57  A    between atoms: _126  and  _127
REMARK   58  A    between atoms: _130  and  _132
REMARK   59  A    between atoms: _132  and  _133
REMARK   60  A    between atoms: _132  and  _135
REMARK   61  A    between atoms: _135  and  _136
REMARK   62  A    between atoms: _139  and  _141
REMARK   63  A    between atoms: _141  and  _142
REMARK   64  A    between atoms: _141  and  _144
REMARK   65  A    between atoms: _144  and  _145
REMARK   66  A    between atoms: _148  and  _150
REMARK   67  A    between atoms: _150  and  _151
REMARK   68  A    between atoms: _150  and  _153
REMARK   69  A    between atoms: _153  and  _154
REMARK   70  A    between atoms: _154  and  _155
REMARK   71  A    between atoms: _155  and  _156
REMARK   72  A    between atoms: _156  and  _157
REMARK   73  A    between atoms: _161  and  _163
REMARK   74  A    between atoms: _163  and  _164
REMARK   75  A    between atoms: _163  and  _166
REMARK   76  A    between atoms: _166  and  _167
REMARK   77  A    between atoms: _170  and  _172
REMARK   78  A    between atoms: _172  and  _173
REMARK   79  A    between atoms: _172  and  _175
REMARK   80  A    between atoms: _175  and  _176
REMARK   81  A    between atoms: _176  and  _177
REMARK   82  A    between atoms: _180  and  _182
REMARK   83  A    between atoms: _182  and  _183
REMARK   84  A    between atoms: _182  and  _185
REMARK   85  A    between atoms: _185  and  _186
REMARK   86  A    between atoms: _189  and  _191
REMARK   87  A    between atoms: _191  and  _192
REMARK   88  A    between atoms: _191  and  _194
REMARK   89  A    between atoms: _197  and  _199
REMARK   90  A    between atoms: _199  and  _200
REMARK   91  A    between atoms: _199  and  _202
REMARK   92  A    between atoms: _202  and  _203
REMARK   93  A    between atoms: _206  and  _208
REMARK   94  A    between atoms: _208  and  _209
REMARK   95  A    between atoms: _208  and  _211
REMARK   96  A    between atoms: _211  and  _212
REMARK   97  A    between atoms: _215  and  _217
REMARK   98  A    between atoms: _217  and  _218
REMARK   99  A    between atoms: _220  and  _222
REMARK  100  A    between atoms: _222  and  _223
REMARK  101  A    between atoms: _222  and  _225
REMARK  102  A    between atoms: _225  and  _226
REMARK  103  A    between atoms: _229  and  _231
REMARK  104  A    between atoms: _231  and  _232
REMARK  105  A    between atoms: _234  and  _236
REMARK  106  A    between atoms: _236  and  _237
REMARK  107  A    between atoms: _236  and  _239
REMARK  108  A    between atoms: _239  and  _240
REMARK  109  A    between atoms: _240  and  _241
REMARK  110  A    between atoms: _243  and  _245
REMARK  111  A    between atoms: _245  and  _246
REMARK  112  A    between atoms: _245  and  _248
REMARK  113  A    between atoms: _248  and  _249
REMARK  114  A    between atoms: _252  and  _254
REMARK  115  A    between atoms: _254  and  _255
REMARK  116  A    between atoms: _254  and  _257
REMARK  117  A    between atoms: _257  and  _258
REMARK  118  A    between atoms: _258  and  _259
REMARK  119  A    between atoms: _259  and  _260
REMARK  120  A    between atoms: _260  and  _261
REMARK  121  A    between atoms: _265  and  _267
REMARK  122  A    between atoms: _267  and  _268
REMARK  123  A    between atoms: _271  and  _273
REMARK  124  A    between atoms: _273  and  _274
REMARK  125  A    between atoms: _273  and  _276
REMARK  126  A    between atoms: _276  and  _277
REMARK  127  A    between atoms: _280  and  _282
REMARK  128  A    between atoms: _282  and  _283
REMARK  129  A    between atoms: _282  and  _285
REMARK  130  A    between atoms: _285  and  _286
REMARK  131  A    between atoms: _289  and  _291
REMARK  132  A    between atoms: _291  and  _292
REMARK  133  A    between atoms: _291  and  _294
REMARK  134  A    between atoms: _294  and  _295
REMARK  135  A    between atoms: _298  and  _300
REMARK  136  A    between atoms: _300  and  _301
REMARK  137  A    between atoms: _300  and  _303
REMARK  138  A    between atoms: _303  and  _304
REMARK  139  A    between atoms: _309  and  _311
REMARK  140  A    between atoms: _311  and  _312
REMARK  141  A    between atoms: _311  and  _314
REMARK  142  A    between atoms: _314  and  _315
REMARK  143  A    between atoms: _320  and  _322
REMARK  144  A    between atoms: _322  and  _323
REMARK  145  A    between atoms: _322  and  _325
REMARK  146  A    between atoms: _325  and  _326
REMARK  147  A    between atoms: _329  and  _331
REMARK  148  A    between atoms: _331  and  _332
REMARK  149  A    between atoms: _334  and  _336
REMARK  150  A    between atoms: _336  and  _337
REMARK  151  A    between atoms: _336  and  _339
REMARK  152  A    between atoms: _339  and  _340
REMARK  153  A    between atoms: _343  and  _345
REMARK  154  A    between atoms: _345  and  _346
REMARK  155  A    between atoms: _345  and  _348
REMARK  156  A    between atoms: _348  and  _349
REMARK  157  A    between atoms: _352  and  _354
REMARK  158  A    between atoms: _354  and  _355
REMARK  159  A    between atoms: _358  and  _360
REMARK  160  A    between atoms: _360  and  _361
REMARK  161  A    between atoms: _360  and  _363
REMARK  162  A    between atoms: _363  and  _364
REMARK  163  A    between atoms: _364  and  _365
REMARK  164  A    between atoms: _365  and  _366
REMARK  165  A    between atoms: _366  and  _367
REMARK  166  A    between atoms: _371  and  _373
REMARK  167  A    between atoms: _373  and  _374
REMARK  168  A    between atoms: _373  and  _376
REMARK  169  A    between atoms: _376  and  _377
REMARK  170  A    between atoms: _380  and  _382
REMARK  171  A    between atoms: _382  and  _383
REMARK  172  A    between atoms: _382  and  _385
REMARK  173  A    between atoms: _385  and  _386
REMARK  174  A    between atoms: _392  and  _394
REMARK  175  A    between atoms: _394  and  _395
REMARK  176  A    between atoms: _397  and  _399
REMARK  177  A    between atoms: _399  and  _400
REMARK  178  A    between atoms: _399  and  _402
REMARK  179  A    between atoms: _405  and  _407
REMARK  180  A    between atoms: _407  and  _408
REMARK  181  A    between atoms: _410  and  _412
REMARK  182  A    between atoms: _412  and  _413
REMARK  183  A    between atoms: _412  and  _415
REMARK  184  A    between atoms: _415  and  _416
REMARK  185  A    between atoms: _422  and  _424
REMARK  186  A    between atoms: _424  and  _425
REMARK  187  A    between atoms: _424  and  _427
REMARK  188  A    between atoms: _427  and  _428
REMARK  189  A    between atoms: _433  and  _434
REMARK  190  A    between atoms: _436  and  _438
REMARK  191  A    between atoms: _438  and  _439
REMARK  192  A    between atoms: _438  and  _441
REMARK  193  A    between atoms: _441  and  _442
REMARK  194  A    between atoms: _444  and  _446
REMARK  195  A    between atoms: _446  and  _447
REMARK  196  A    between atoms: _446  and  _449
REMARK  197  A    between atoms: _449  and  _450
REMARK  198  A    between atoms: _455  and  _456
REMARK  199  A    between atoms: _458  and  _460
REMARK  200  A    between atoms: _460  and  _461
REMARK  201  A    between atoms: _460  and  _463
REMARK  202  A    between atoms: _466  and  _468
REMARK  203  A    between atoms: _468  and  _469
REMARK  204  A    between atoms: _468  and  _471
REMARK  205  A    between atoms: _471  and  _472
REMARK  206  A    between atoms: _475  and  _477
REMARK  207  A    between atoms: _477  and  _478
REMARK  208  A    between atoms: _477  and  _480
REMARK  209  A    between atoms: _483  and  _485
REMARK  210  A    between atoms: _485  and  _486
REMARK  211  A    between atoms: _485  and  _488
REMARK  212  A    between atoms: _488  and  _489
REMARK  213  A    between atoms: _492  and  _494
REMARK  214  A    between atoms: _494  and  _495
REMARK  215  A    between atoms: _494  and  _497
REMARK  216  A    between atoms: _497  and  _498
REMARK  217  A    between atoms: _501  and  _503
REMARK  218  A    between atoms: _503  and  _504
REMARK  219  A    between atoms: _503  and  _506
REMARK  220  A    between atoms: _506  and  _507
REMARK  221  A    between atoms: _507  and  _508
REMARK  222  A    between atoms: _508  and  _509
REMARK  223  A    between atoms: _509  and  _510
REMARK  224  A    between atoms: _514  and  _516
REMARK  225  A    between atoms: _516  and  _517
REMARK  226  A    between atoms: _516  and  _519
REMARK  227  A    between atoms: _519  and  _520
REMARK  228  A    between atoms: _525  and  _527
REMARK  229  A    between atoms: _527  and  _528
REMARK  230  A    between atoms: _527  and  _530
REMARK  231  A    between atoms: _530  and  _531
REMARK  232  A    between atoms: _541  and  _543
REMARK  233  A    between atoms: _543  and  _544
REMARK  234  A    between atoms: _543  and  _546
REMARK  235  A    between atoms: _546  and  _547
REMARK  236  A    between atoms: _547  and  _548
REMARK  237  A    between atoms: _551  and  _553
REMARK  238  A    between atoms: _553  and  _554
REMARK  239  A    between atoms: _553  and  _556
REMARK  240  A    between atoms: _556  and  _557
REMARK  241  A    between atoms: _559  and  _561
REMARK  242  A    between atoms: _561  and  _562
REMARK  243  A    between atoms: _561  and  _564
REMARK  244  A    between atoms: _564  and  _565
REMARK  245  A    between atoms: _571  and  _573
REMARK  246  A    between atoms: _573  and  _574
REMARK  247  A    between atoms: _573  and  _576
REMARK  248  A    between atoms: _576  and  _577
REMARK  249  A    between atoms: _580  and  _582
REMARK  250  A    between atoms: _582  and  _583
REMARK  251  A    between atoms: _582  and  _585
REMARK  252  A    between atoms: _588  and  _590
REMARK  253  A    between atoms: _590  and  _591
REMARK  254  A    between atoms: _593  and  _595
REMARK  255  A    between atoms: _595  and  _596
REMARK  256  A    between atoms: _595  and  _598
REMARK  257  A    between atoms: _598  and  _599
REMARK  258  A    between atoms: _602  and  _604
REMARK  259  A    between atoms: _604  and  _605
REMARK  260  A    between atoms: _604  and  _607
REMARK  261  A    between atoms: _607  and  _608
REMARK  262  A    between atoms: _608  and  _609
REMARK  263  A    between atoms: _609  and  _610
REMARK  264  A    between atoms: _610  and  _611
REMARK  265  A    between atoms: _615  and  _617
REMARK  266  A    between atoms: _617  and  _618
REMARK  267  A    between atoms: _617  and  _620
REMARK                            x       y       z     vdW  Elec       q    Type
REMARK                         _______ _______ _______ _____ _____    ______ ____
ROOT
ATOM      1  O   HOH     1      23.624   5.679  17.893  0.00  0.00    +0.000 OA
ENDROOT
TORSDOF 0
REMARK  Name = ../refined-set-2016/4nh7/4nh7_pocket.pdb
REMARK  267 active torsions:
REMARK  status: ('A' for Active; 'I' for Inactive)
REMARK    1  A    between atoms: _1  and  _3
REMARK    2  A    between atoms: _3  and  _4
REMARK    3  A    between atoms: _3  and  _6
REMARK    4  A    between atoms: _6  and  _7
REMARK    5  A    between atoms: _13  and  _15
REMARK    6  A    between atoms: _15  and  _16
REMARK    7  A    between atoms: _15  and  _18
REMARK    8  A    between atoms: _18  and  _19
REMARK    9  A    between atoms: _19  and  _20
REMARK   10  A    between atoms: _25  and  _27
REMARK   11  A    between atoms: _27  and  _28
REMARK   12  A    between atoms: _27  and  _30
REMARK   13  A    between atoms: _30  and  _31
REMARK   14  A    between atoms: _34  and  _36
REMARK   15  A    between atoms: _36  and  _37
REMARK   16  A    between atoms: _36  and  _39
REMARK   17  A    between atoms: _39  and  _40
REMARK   18  A    between atoms: _43  and  _45
REMARK   19  A    between atoms: _45  and  _46
REMARK   20  A    between atoms: _45  and  _48
REMARK   21  A    between atoms: _48  and  _49
REMARK   22  A    between atoms: _49  and  _50
REMARK   23  A    between atoms: _52  and  _54
REMARK   24  A    between atoms: _54  and  _55
REMARK   25  A    between atoms: _54  and  _57
REMARK   26  A    between atoms: _57  and  _58
REMARK   27  A    between atoms: _58  and  _59
REMARK   28  A    between atoms: _62  and  _64
REMARK   29  A    between atoms: _64  and  _65
REMARK   30  A    between atoms: _64  and  _67
REMARK   31  A    between atoms: _67  and  _68
REMARK   32  A    between atoms: _71  and  _73
REMARK   33  A    between atoms: _73  and  _74
REMARK   34  A    between atoms: _73  and  _76
REMARK   35  A    between atoms: _76  and  _77
REMARK   36  A    between atoms: _80  and  _82
REMARK   37  A    between atoms: _82  and  _83
REMARK   38  A    between atoms: _82  and  _85
REMARK   39  A    between atoms: _85  and  _86
REMARK   40  A    between atoms: _88  and  _90
REMARK   41  A    between atoms: _90  and  _91
REMARK   42  A    between atoms: _90  and  _93
REMARK   43  A    between atoms: _93  and  _94
REMARK   44  A    between atoms: _99  and  _101
REMARK   45  A    between atoms: _101  and  _102
REMARK   46  A    between atoms: _101  and  _104
REMARK   47  A    between atoms: _104  and  _105
REMARK   48  A    between atoms: _107  and  _109
REMARK   49  A    between atoms: _109  and  _110
REMARK   50  A    between atoms: _109  and  _112
REMARK   51  A    between atoms: _112  and  _113
REMARK   52  A    between atoms: _115  and  _117
REMARK   53  A    between atoms: _117  and  _118
REMARK   54  A    between atoms: _117  and  _120
REMARK   55  A    between atoms: _120  and  _121
REMARK   56  A    between atoms: _124  and  _126
REMARK   57  A    between atoms: _126  and  _127
REMARK   58  A    between atoms: _130  and  _132
REMARK   59  A    between atoms: _132  and  _133
REMARK   60  A    between atoms: _132  and  _135
REMARK   61  A    between atoms: _135  and  _136
REMARK   62  A    between atoms: _139  and  _141
REMARK   63  A    between atoms: _141  and  _142
REMARK   64  A    between atoms: _141  and  _144
REMARK   65  A    between atoms: _144  and  _145
REMARK   66  A    between atoms: _148  and  _150
REMARK   67  A    between atoms: _150  and  _151
REMARK   68  A    between atoms: _150  and  _153
REMARK   69  A    between atoms: _153  and  _154
REMARK   70  A    between atoms: _154  and  _155
REMARK   71  A    between atoms: _155  and  _156
REMARK   72  A    between atoms: _156  and  _157
REMARK   73  A    between atoms: _161  and  _163
REMARK   74  A    between atoms: _163  and  _164
REMARK   75  A    between atoms: _163  and  _166
REMARK   76  A    between atoms: _166  and  _167
REMARK   77  A    between atoms: _170  and  _172
REMARK   78  A    between atoms: _172  and  _173
REMARK   79  A    between atoms: _172  and  _175
REMARK   80  A    between atoms: _175  and  _176
REMARK   81  A    between atoms: _176  and  _177
REMARK   82  A    between atoms: _180  and  _182
REMARK   83  A    between atoms: _182  and  _183
REMARK   84  A    between atoms: _182  and  _185
REMARK   85  A    between atoms: _185  and  _186
REMARK   86  A    between atoms: _189  and  _191
REMARK   87  A    between atoms: _191  and  _192
REMARK   88  A    between atoms: _191  and  _194
REMARK   89  A    between atoms: _197  and  _199
REMARK   90  A    between atoms: _199  and  _200
REMARK   91  A    between atoms: _199  and  _202
REMARK   92  A    between atoms: _202  and  _203
REMARK   93  A    between atoms: _206  and  _208
REMARK   94  A    between atoms: _208  and  _209
REMARK   95  A    between atoms: _208  and  _211
REMARK   96  A    between atoms: _211  and  _212
REMARK   97  A    between atoms: _215  and  _217
REMARK   98  A    between atoms: _217  and  _218
REMARK   99  A    between atoms: _220  and  _222
REMARK  100  A    between atoms: _222  and  _223
REMARK  101  A    between atoms: _222  and  _225
REMARK  102  A    between atoms: _225  and  _226
REMARK  103  A    between atoms: _229  and  _231
REMARK  104  A    between atoms: _231  and  _232
REMARK  105  A    between atoms: _234  and  _236
REMARK  106  A    between atoms: _236  and  _237
REMARK  107  A    between atoms: _236  and  _239
REMARK  108  A    between atoms: _239  and  _240
REMARK  109  A    between atoms: _240  and  _241
REMARK  110  A    between atoms: _243  and  _245
REMARK  111  A    between atoms: _245  and  _246
REMARK  112  A    between atoms: _245  and  _248
REMARK  113  A    between atoms: _248  and  _249
REMARK  114  A    between atoms: _252  and  _254
REMARK  115  A    between atoms: _254  and  _255
REMARK  116  A    between atoms: _254  and  _257
REMARK  117  A    between atoms: _257  and  _258
REMARK  118  A    between atoms: _258  and  _259
REMARK  119  A    between atoms: _259  and  _260
REMARK  120  A    between atoms: _260  and  _261
REMARK  121  A    between atoms: _265  and  _267
REMARK  122  A    between atoms: _267  and  _268
REMARK  123  A    between atoms: _271  and  _273
REMARK  124  A    between atoms: _273  and  _274
REMARK  125  A    between atoms: _273  and  _276
REMARK  126  A    between atoms: _276  and  _277
REMARK  127  A    between atoms: _280  and  _282
REMARK  128  A    between atoms: _282  and  _283
REMARK  129  A    between atoms: _282  and  _285
REMARK  130  A    between atoms: _285  and  _286
REMARK  131  A    between atoms: _289  and  _291
REMARK  132  A    between atoms: _291  and  _292
REMARK  133  A    between atoms: _291  and  _294
REMARK  134  A    between atoms: _294  and  _295
REMARK  135  A    between atoms: _298  and  _300
REMARK  136  A    between atoms: _300  and  _301
REMARK  137  A    between atoms: _300  and  _303
REMARK  138  A    between atoms: _303  and  _304
REMARK  139  A    between atoms: _309  and  _311
REMARK  140  A    between atoms: _311  and  _312
REMARK  141  A    between atoms: _311  and  _314
REMARK  142  A    between atoms: _314  and  _315
REMARK  143  A    between atoms: _320  and  _322
REMARK  144  A    between atoms: _322  and  _323
REMARK  145  A    between atoms: _322  and  _325
REMARK  146  A    between atoms: _325  and  _326
REMARK  147  A    between atoms: _329  and  _331
REMARK  148  A    between atoms: _331  and  _332
REMARK  149  A    between atoms: _334  and  _336
REMARK  150  A    between atoms: _336  and  _337
REMARK  151  A    between atoms: _336  and  _339
REMARK  152  A    between atoms: _339  and  _340
REMARK  153  A    between atoms: _343  and  _345
REMARK  154  A    between atoms: _345  and  _346
REMARK  155  A    between atoms: _345  and  _348
REMARK  156  A    between atoms: _348  and  _349
REMARK  157  A    between atoms: _352  and  _354
REMARK  158  A    between atoms: _354  and  _355
REMARK  159  A    between atoms: _358  and  _360
REMARK  160  A    between atoms: _360  and  _361
REMARK  161  A    between atoms: _360  and  _363
REMARK  162  A    between atoms: _363  and  _364
REMARK  163  A    between atoms: _364  and  _365
REMARK  164  A    between atoms: _365  and  _366
REMARK  165  A    between atoms: _366  and  _367
REMARK  166  A    between atoms: _371  and  _373
REMARK  167  A    between atoms: _373  and  _374
REMARK  168  A    between atoms: _373  and  _376
REMARK  169  A    between atoms: _376  and  _377
REMARK  170  A    between atoms: _380  and  _382
REMARK  171  A    between atoms: _382  and  _383
REMARK  172  A    between atoms: _382  and  _385
REMARK  173  A    between atoms: _385  and  _386
REMARK  174  A    between atoms: _392  and  _394
REMARK  175  A    between atoms: _394  and  _395
REMARK  176  A    between atoms: _397  and  _399
REMARK  177  A    between atoms: _399  and  _400
REMARK  178  A    between atoms: _399  and  _402
REMARK  179  A    between atoms: _405  and  _407
REMARK  180  A    between atoms: _407  and  _408
REMARK  181  A    between atoms: _410  and  _412
REMARK  182  A    between atoms: _412  and  _413
REMARK  183  A    between atoms: _412  and  _415
REMARK  184  A    between atoms: _415  and  _416
REMARK  185  A    between atoms: _422  and  _424
REMARK  186  A    between atoms: _424  and  _425
REMARK  187  A    between atoms: _424  and  _427
REMARK  188  A    between atoms: _427  and  _428
REMARK  189  A    between atoms: _433  and  _434
REMARK  190  A    between atoms: _436  and  _438
REMARK  191  A    between atoms: _438  and  _439
REMARK  192  A    between atoms: _438  and  _441
REMARK  193  A    between atoms: _441  and  _442
REMARK  194  A    between atoms: _444  and  _446
REMARK  195  A    between atoms: _446  and  _447
REMARK  196  A    between atoms: _446  and  _449
REMARK  197  A    between atoms: _449  and  _450
REMARK  198  A    between atoms: _455  and  _456
REMARK  199  A    between atoms: _458  and  _460
REMARK  200  A    between atoms: _460  and  _461
REMARK  201  A    between atoms: _460  and  _463
REMARK  202  A    between atoms: _466  and  _468
REMARK  203  A    between atoms: _468  and  _469
REMARK  204  A    between atoms: _468  and  _471
REMARK  205  A    between atoms: _471  and  _472
REMARK  206  A    between atoms: _475  and  _477
REMARK  207  A    between atoms: _477  and  _478
REMARK  208  A    between atoms: _477  and  _480
REMARK  209  A    between atoms: _483  and  _485
REMARK  210  A    between atoms: _485  and  _486
REMARK  211  A    between atoms: _485  and  _488
REMARK  212  A    between atoms: _488  and  _489
REMARK  213  A    between atoms: _492  and  _494
REMARK  214  A    between atoms: _494  and  _495
REMARK  215  A    between atoms: _494  and  _497
REMARK  216  A    between atoms: _497  and  _498
REMARK  217  A    between atoms: _501  and  _503
REMARK  218  A    between atoms: _503  and  _504
REMARK  219  A    between atoms: _503  and  _506
REMARK  220  A    between atoms: _506  and  _507
REMARK  221  A    between atoms: _507  and  _508
REMARK  222  A    between atoms: _508  and  _509
REMARK  223  A    between atoms: _509  and  _510
REMARK  224  A    between atoms: _514  and  _516
REMARK  225  A    between atoms: _516  and  _517
REMARK  226  A    between atoms: _516  and  _519
REMARK  227  A    between atoms: _519  and  _520
REMARK  228  A    between atoms: _525  and  _527
REMARK  229  A    between atoms: _527  and  _528
REMARK  230  A    between atoms: _527  and  _530
REMARK  231  A    between atoms: _530  and  _531
REMARK  232  A    between atoms: _541  and  _543
REMARK  233  A    between atoms: _543  and  _544
REMARK  234  A    between atoms: _543  and  _546
REMARK  235  A    between atoms: _546  and  _547
REMARK  236  A    between atoms: _547  and  _548
REMARK  237  A    between atoms: _551  and  _553
REMARK  238  A    between atoms: _553  and  _554
REMARK  239  A    between atoms: _553  and  _556
REMARK  240  A    between atoms: _556  and  _557
REMARK  241  A    between atoms: _559  and  _561
REMARK  242  A    between atoms: _561  and  _562
REMARK  243  A    between atoms: _561  and  _564
REMARK  244  A    between atoms: _564  and  _565
REMARK  245  A    between atoms: _571  and  _573
REMARK  246  A    between atoms: _573  and  _574
REMARK  247  A    between atoms: _573  and  _576
REMARK  248  A    between atoms: _576  and  _577
REMARK  249  A    between atoms: _580  and  _582
REMARK  250  A    between atoms: _582  and  _583
REMARK  251  A    between atoms: _582  and  _585
REMARK  252  A    between atoms: _588  and  _590
REMARK  253  A    between atoms: _590  and  _591
REMARK  254  A    between atoms: _593  and  _595
REMARK  255  A    between atoms: _595  and  _596
REMARK  256  A    between atoms: _595  and  _598
REMARK  257  A    between atoms: _598  and  _599
REMARK  258  A    between atoms: _602  and  _604
REMARK  259  A    between atoms: _604  and  _605
REMARK  260  A    between atoms: _604  and  _607
REMARK  261  A    between atoms: _607  and  _608
REMARK  262  A    between atoms: _608  and  _609
REMARK  263  A    between atoms: _609  and  _610
REMARK  264  A    between atoms: _610  and  _611
REMARK  265  A    between atoms: _615  and  _617
REMARK  266  A    between atoms: _617  and  _618
REMARK  267  A    between atoms: _617  and  _620
REMARK                            x       y       z     vdW  Elec       q    Type
REMARK                         _______ _______ _______ _____ _____    ______ ____
ROOT
ATOM      1  O   HOH     1      14.744   1.005  13.371  0.00  0.00    +0.000 OA
ENDROOT
TORSDOF 0
REMARK  Name = ../refined-set-2016/4nh7/4nh7_pocket.pdb
REMARK  267 active torsions:
REMARK  status: ('A' for Active; 'I' for Inactive)
REMARK    1  A    between atoms: _1  and  _3
REMARK    2  A    between atoms: _3  and  _4
REMARK    3  A    between atoms: _3  and  _6
REMARK    4  A    between atoms: _6  and  _7
REMARK    5  A    between atoms: _13  and  _15
REMARK    6  A    between atoms: _15  and  _16
REMARK    7  A    between atoms: _15  and  _18
REMARK    8  A    between atoms: _18  and  _19
REMARK    9  A    between atoms: _19  and  _20
REMARK   10  A    between atoms: _25  and  _27
REMARK   11  A    between atoms: _27  and  _28
REMARK   12  A    between atoms: _27  and  _30
REMARK   13  A    between atoms: _30  and  _31
REMARK   14  A    between atoms: _34  and  _36
REMARK   15  A    between atoms: _36  and  _37
REMARK   16  A    between atoms: _36  and  _39
REMARK   17  A    between atoms: _39  and  _40
REMARK   18  A    between atoms: _43  and  _45
REMARK   19  A    between atoms: _45  and  _46
REMARK   20  A    between atoms: _45  and  _48
REMARK   21  A    between atoms: _48  and  _49
REMARK   22  A    between atoms: _49  and  _50
REMARK   23  A    between atoms: _52  and  _54
REMARK   24  A    between atoms: _54  and  _55
REMARK   25  A    between atoms: _54  and  _57
REMARK   26  A    between atoms: _57  and  _58
REMARK   27  A    between atoms: _58  and  _59
REMARK   28  A    between atoms: _62  and  _64
REMARK   29  A    between atoms: _64  and  _65
REMARK   30  A    between atoms: _64  and  _67
REMARK   31  A    between atoms: _67  and  _68
REMARK   32  A    between atoms: _71  and  _73
REMARK   33  A    between atoms: _73  and  _74
REMARK   34  A    between atoms: _73  and  _76
REMARK   35  A    between atoms: _76  and  _77
REMARK   36  A    between atoms: _80  and  _82
REMARK   37  A    between atoms: _82  and  _83
REMARK   38  A    between atoms: _82  and  _85
REMARK   39  A    between atoms: _85  and  _86
REMARK   40  A    between atoms: _88  and  _90
REMARK   41  A    between atoms: _90  and  _91
REMARK   42  A    between atoms: _90  and  _93
REMARK   43  A    between atoms: _93  and  _94
REMARK   44  A    between atoms: _99  and  _101
REMARK   45  A    between atoms: _101  and  _102
REMARK   46  A    between atoms: _101  and  _104
REMARK   47  A    between atoms: _104  and  _105
REMARK   48  A    between atoms: _107  and  _109
REMARK   49  A    between atoms: _109  and  _110
REMARK   50  A    between atoms: _109  and  _112
REMARK   51  A    between atoms: _112  and  _113
REMARK   52  A    between atoms: _115  and  _117
REMARK   53  A    between atoms: _117  and  _118
REMARK   54  A    between atoms: _117  and  _120
REMARK   55  A    between atoms: _120  and  _121
REMARK   56  A    between atoms: _124  and  _126
REMARK   57  A    between atoms: _126  and  _127
REMARK   58  A    between atoms: _130  and  _132
REMARK   59  A    between atoms: _132  and  _133
REMARK   60  A    between atoms: _132  and  _135
REMARK   61  A    between atoms: _135  and  _136
REMARK   62  A    between atoms: _139  and  _141
REMARK   63  A    between atoms: _141  and  _142
REMARK   64  A    between atoms: _141  and  _144
REMARK   65  A    between atoms: _144  and  _145
REMARK   66  A    between atoms: _148  and  _150
REMARK   67  A    between atoms: _150  and  _151
REMARK   68  A    between atoms: _150  and  _153
REMARK   69  A    between atoms: _153  and  _154
REMARK   70  A    between atoms: _154  and  _155
REMARK   71  A    between atoms: _155  and  _156
REMARK   72  A    between atoms: _156  and  _157
REMARK   73  A    between atoms: _161  and  _163
REMARK   74  A    between atoms: _163  and  _164
REMARK   75  A    between atoms: _163  and  _166
REMARK   76  A    between atoms: _166  and  _167
REMARK   77  A    between atoms: _170  and  _172
REMARK   78  A    between atoms: _172  and  _173
REMARK   79  A    between atoms: _172  and  _175
REMARK   80  A    between atoms: _175  and  _176
REMARK   81  A    between atoms: _176  and  _177
REMARK   82  A    between atoms: _180  and  _182
REMARK   83  A    between atoms: _182  and  _183
REMARK   84  A    between atoms: _182  and  _185
REMARK   85  A    between atoms: _185  and  _186
REMARK   86  A    between atoms: _189  and  _191
REMARK   87  A    between atoms: _191  and  _192
REMARK   88  A    between atoms: _191  and  _194
REMARK   89  A    between atoms: _197  and  _199
REMARK   90  A    between atoms: _199  and  _200
REMARK   91  A    between atoms: _199  and  _202
REMARK   92  A    between atoms: _202  and  _203
REMARK   93  A    between atoms: _206  and  _208
REMARK   94  A    between atoms: _208  and  _209
REMARK   95  A    between atoms: _208  and  _211
REMARK   96  A    between atoms: _211  and  _212
REMARK   97  A    between atoms: _215  and  _217
REMARK   98  A    between atoms: _217  and  _218
REMARK   99  A    between atoms: _220  and  _222
REMARK  100  A    between atoms: _222  and  _223
REMARK  101  A    between atoms: _222  and  _225
REMARK  102  A    between atoms: _225  and  _226
REMARK  103  A    between atoms: _229  and  _231
REMARK  104  A    between atoms: _231  and  _232
REMARK  105  A    between atoms: _234  and  _236
REMARK  106  A    between atoms: _236  and  _237
REMARK  107  A    between atoms: _236  and  _239
REMARK  108  A    between atoms: _239  and  _240
REMARK  109  A    between atoms: _240  and  _241
REMARK  110  A    between atoms: _243  and  _245
REMARK  111  A    between atoms: _245  and  _246
REMARK  112  A    between atoms: _245  and  _248
REMARK  113  A    between atoms: _248  and  _249
REMARK  114  A    between atoms: _252  and  _254
REMARK  115  A    between atoms: _254  and  _255
REMARK  116  A    between atoms: _254  and  _257
REMARK  117  A    between atoms: _257  and  _258
REMARK  118  A    between atoms: _258  and  _259
REMARK  119  A    between atoms: _259  and  _260
REMARK  120  A    between atoms: _260  and  _261
REMARK  121  A    between atoms: _265  and  _267
REMARK  122  A    between atoms: _267  and  _268
REMARK  123  A    between atoms: _271  and  _273
REMARK  124  A    between atoms: _273  and  _274
REMARK  125  A    between atoms: _273  and  _276
REMARK  126  A    between atoms: _276  and  _277
REMARK  127  A    between atoms: _280  and  _282
REMARK  128  A    between atoms: _282  and  _283
REMARK  129  A    between atoms: _282  and  _285
REMARK  130  A    between atoms: _285  and  _286
REMARK  131  A    between atoms: _289  and  _291
REMARK  132  A    between atoms: _291  and  _292
REMARK  133  A    between atoms: _291  and  _294
REMARK  134  A    between atoms: _294  and  _295
REMARK  135  A    between atoms: _298  and  _300
REMARK  136  A    between atoms: _300  and  _301
REMARK  137  A    between atoms: _300  and  _303
REMARK  138  A    between atoms: _303  and  _304
REMARK  139  A    between atoms: _309  and  _311
REMARK  140  A    between atoms: _311  and  _312
REMARK  141  A    between atoms: _311  and  _314
REMARK  142  A    between atoms: _314  and  _315
REMARK  143  A    between atoms: _320  and  _322
REMARK  144  A    between atoms: _322  and  _323
REMARK  145  A    between atoms: _322  and  _325
REMARK  146  A    between atoms: _325  and  _326
REMARK  147  A    between atoms: _329  and  _331
REMARK  148  A    between atoms: _331  and  _332
REMARK  149  A    between atoms: _334  and  _336
REMARK  150  A    between atoms: _336  and  _337
REMARK  151  A    between atoms: _336  and  _339
REMARK  152  A    between atoms: _339  and  _340
REMARK  153  A    between atoms: _343  and  _345
REMARK  154  A    between atoms: _345  and  _346
REMARK  155  A    between atoms: _345  and  _348
REMARK  156  A    between atoms: _348  and  _349
REMARK  157  A    between atoms: _352  and  _354
REMARK  158  A    between atoms: _354  and  _355
REMARK  159  A    between atoms: _358  and  _360
REMARK  160  A    between atoms: _360  and  _361
REMARK  161  A    between atoms: _360  and  _363
REMARK  162  A    between atoms: _363  and  _364
REMARK  163  A    between atoms: _364  and  _365
REMARK  164  A    between atoms: _365  and  _366
REMARK  165  A    between atoms: _366  and  _367
REMARK  166  A    between atoms: _371  and  _373
REMARK  167  A    between atoms: _373  and  _374
REMARK  168  A    between atoms: _373  and  _376
REMARK  169  A    between atoms: _376  and  _377
REMARK  170  A    between atoms: _380  and  _382
REMARK  171  A    between atoms: _382  and  _383
REMARK  172  A    between atoms: _382  and  _385
REMARK  173  A    between atoms: _385  and  _386
REMARK  174  A    between atoms: _392  and  _394
REMARK  175  A    between atoms: _394  and  _395
REMARK  176  A    between atoms: _397  and  _399
REMARK  177  A    between atoms: _399  and  _400
REMARK  178  A    between atoms: _399  and  _402
REMARK  179  A    between atoms: _405  and  _407
REMARK  180  A    between atoms: _407  and  _408
REMARK  181  A    between atoms: _410  and  _412
REMARK  182  A    between atoms: _412  and  _413
REMARK  183  A    between atoms: _412  and  _415
REMARK  184  A    between atoms: _415  and  _416
REMARK  185  A    between atoms: _422  and  _424
REMARK  186  A    between atoms: _424  and  _425
REMARK  187  A    between atoms: _424  and  _427
REMARK  188  A    between atoms: _427  and  _428
REMARK  189  A    between atoms: _433  and  _434
REMARK  190  A    between atoms: _436  and  _438
REMARK  191  A    between atoms: _438  and  _439
REMARK  192  A    between atoms: _438  and  _441
REMARK  193  A    between atoms: _441  and  _442
REMARK  194  A    between atoms: _444  and  _446
REMARK  195  A    between atoms: _446  and  _447
REMARK  196  A    between atoms: _446  and  _449
REMARK  197  A    between atoms: _449  and  _450
REMARK  198  A    between atoms: _455  and  _456
REMARK  199  A    between atoms: _458  and  _460
REMARK  200  A    between atoms: _460  and  _461
REMARK  201  A    between atoms: _460  and  _463
REMARK  202  A    between atoms: _466  and  _468
REMARK  203  A    between atoms: _468  and  _469
REMARK  204  A    between atoms: _468  and  _471
REMARK  205  A    between atoms: _471  and  _472
REMARK  206  A    between atoms: _475  and  _477
REMARK  207  A    between atoms: _477  and  _478
REMARK  208  A    between atoms: _477  and  _480
REMARK  209  A    between atoms: _483  and  _485
REMARK  210  A    between atoms: _485  and  _486
REMARK  211  A    between atoms: _485  and  _488
REMARK  212  A    between atoms: _488  and  _489
REMARK  213  A    between atoms: _492  and  _494
REMARK  214  A    between atoms: _494  and  _495
REMARK  215  A    between atoms: _494  and  _497
REMARK  216  A    between atoms: _497  and  _498
REMARK  217  A    between atoms: _501  and  _503
REMARK  218  A    between atoms: _503  and  _504
REMARK  219  A    between atoms: _503  and  _506
REMARK  220  A    between atoms: _506  and  _507
REMARK  221  A    between atoms: _507  and  _508
REMARK  222  A    between atoms: _508  and  _509
REMARK  223  A    between atoms: _509  and  _510
REMARK  224  A    between atoms: _514  and  _516
REMARK  225  A    between atoms: _516  and  _517
REMARK  226  A    between atoms: _516  and  _519
REMARK  227  A    between atoms: _519  and  _520
REMARK  228  A    between atoms: _525  and  _527
REMARK  229  A    between atoms: _527  and  _528
REMARK  230  A    between atoms: _527  and  _530
REMARK  231  A    between atoms: _530  and  _531
REMARK  232  A    between atoms: _541  and  _543
REMARK  233  A    between atoms: _543  and  _544
REMARK  234  A    between atoms: _543  and  _546
REMARK  235  A    between atoms: _546  and  _547
REMARK  236  A    between atoms: _547  and  _548
REMARK  237  A    between atoms: _551  and  _553
REMARK  238  A    between atoms: _553  and  _554
REMARK  239  A    between atoms: _553  and  _556
REMARK  240  A    between atoms: _556  and  _557
REMARK  241  A    between atoms: _559  and  _561
REMARK  242  A    between atoms: _561  and  _562
REMARK  243  A    between atoms: _561  and  _564
REMARK  244  A    between atoms: _564  and  _565
REMARK  245  A    between atoms: _571  and  _573
REMARK  246  A    between atoms: _573  and  _574
REMARK  247  A    between atoms: _573  and  _576
REMARK  248  A    between atoms: _576  and  _577
REMARK  249  A    between atoms: _580  and  _582
REMARK  250  A    between atoms: _582  and  _583
REMARK  251  A    between atoms: _582  and  _585
REMARK  252  A    between atoms: _588  and  _590
REMARK  253  A    between atoms: _590  and  _591
REMARK  254  A    between atoms: _593  and  _595
REMARK  255  A    between atoms: _595  and  _596
REMARK  256  A    between atoms: _595  and  _598
REMARK  257  A    between atoms: _598  and  _599
REMARK  258  A    between atoms: _602  and  _604
REMARK  259  A    between atoms: _604  and  _605
REMARK  260  A    between atoms: _604  and  _607
REMARK  261  A    between atoms: _607  and  _608
REMARK  262  A    between atoms: _608  and  _609
REMARK  263  A    between atoms: _609  and  _610
REMARK  264  A    between atoms: _610  and  _611
REMARK  265  A    between atoms: _615  and  _617
REMARK  266  A    between atoms: _617  and  _618
REMARK  267  A    between atoms: _617  and  _620
REMARK                            x       y       z     vdW  Elec       q    Type
REMARK                         _______ _______ _______ _____ _____    ______ ____
ROOT
ATOM      1  O   HOH     1       9.678  13.043  23.206  0.00  0.00    +0.000 OA
ENDROOT
TORSDOF 0
REMARK  Name = ../refined-set-2016/4nh7/4nh7_pocket.pdb
REMARK  267 active torsions:
REMARK  status: ('A' for Active; 'I' for Inactive)
REMARK    1  A    between atoms: _1  and  _3
REMARK    2  A    between atoms: _3  and  _4
REMARK    3  A    between atoms: _3  and  _6
REMARK    4  A    between atoms: _6  and  _7
REMARK    5  A    between atoms: _13  and  _15
REMARK    6  A    between atoms: _15  and  _16
REMARK    7  A    between atoms: _15  and  _18
REMARK    8  A    between atoms: _18  and  _19
REMARK    9  A    between atoms: _19  and  _20
REMARK   10  A    between atoms: _25  and  _27
REMARK   11  A    between atoms: _27  and  _28
REMARK   12  A    between atoms: _27  and  _30
REMARK   13  A    between atoms: _30  and  _31
REMARK   14  A    between atoms: _34  and  _36
REMARK   15  A    between atoms: _36  and  _37
REMARK   16  A    between atoms: _36  and  _39
REMARK   17  A    between atoms: _39  and  _40
REMARK   18  A    between atoms: _43  and  _45
REMARK   19  A    between atoms: _45  and  _46
REMARK   20  A    between atoms: _45  and  _48
REMARK   21  A    between atoms: _48  and  _49
REMARK   22  A    between atoms: _49  and  _50
REMARK   23  A    between atoms: _52  and  _54
REMARK   24  A    between atoms: _54  and  _55
REMARK   25  A    between atoms: _54  and  _57
REMARK   26  A    between atoms: _57  and  _58
REMARK   27  A    between atoms: _58  and  _59
REMARK   28  A    between atoms: _62  and  _64
REMARK   29  A    between atoms: _64  and  _65
REMARK   30  A    between atoms: _64  and  _67
REMARK   31  A    between atoms: _67  and  _68
REMARK   32  A    between atoms: _71  and  _73
REMARK   33  A    between atoms: _73  and  _74
REMARK   34  A    between atoms: _73  and  _76
REMARK   35  A    between atoms: _76  and  _77
REMARK   36  A    between atoms: _80  and  _82
REMARK   37  A    between atoms: _82  and  _83
REMARK   38  A    between atoms: _82  and  _85
REMARK   39  A    between atoms: _85  and  _86
REMARK   40  A    between atoms: _88  and  _90
REMARK   41  A    between atoms: _90  and  _91
REMARK   42  A    between atoms: _90  and  _93
REMARK   43  A    between atoms: _93  and  _94
REMARK   44  A    between atoms: _99  and  _101
REMARK   45  A    between atoms: _101  and  _102
REMARK   46  A    between atoms: _101  and  _104
REMARK   47  A    between atoms: _104  and  _105
REMARK   48  A    between atoms: _107  and  _109
REMARK   49  A    between atoms: _109  and  _110
REMARK   50  A    between atoms: _109  and  _112
REMARK   51  A    between atoms: _112  and  _113
REMARK   52  A    between atoms: _115  and  _117
REMARK   53  A    between atoms: _117  and  _118
REMARK   54  A    between atoms: _117  and  _120
REMARK   55  A    between atoms: _120  and  _121
REMARK   56  A    between atoms: _124  and  _126
REMARK   57  A    between atoms: _126  and  _127
REMARK   58  A    between atoms: _130  and  _132
REMARK   59  A    between atoms: _132  and  _133
REMARK   60  A    between atoms: _132  and  _135
REMARK   61  A    between atoms: _135  and  _136
REMARK   62  A    between atoms: _139  and  _141
REMARK   63  A    between atoms: _141  and  _142
REMARK   64  A    between atoms: _141  and  _144
REMARK   65  A    between atoms: _144  and  _145
REMARK   66  A    between atoms: _148  and  _150
REMARK   67  A    between atoms: _150  and  _151
REMARK   68  A    between atoms: _150  and  _153
REMARK   69  A    between atoms: _153  and  _154
REMARK   70  A    between atoms: _154  and  _155
REMARK   71  A    between atoms: _155  and  _156
REMARK   72  A    between atoms: _156  and  _157
REMARK   73  A    between atoms: _161  and  _163
REMARK   74  A    between atoms: _163  and  _164
REMARK   75  A    between atoms: _163  and  _166
REMARK   76  A    between atoms: _166  and  _167
REMARK   77  A    between atoms: _170  and  _172
REMARK   78  A    between atoms: _172  and  _173
REMARK   79  A    between atoms: _172  and  _175
REMARK   80  A    between atoms: _175  and  _176
REMARK   81  A    between atoms: _176  and  _177
REMARK   82  A    between atoms: _180  and  _182
REMARK   83  A    between atoms: _182  and  _183
REMARK   84  A    between atoms: _182  and  _185
REMARK   85  A    between atoms: _185  and  _186
REMARK   86  A    between atoms: _189  and  _191
REMARK   87  A    between atoms: _191  and  _192
REMARK   88  A    between atoms: _191  and  _194
REMARK   89  A    between atoms: _197  and  _199
REMARK   90  A    between atoms: _199  and  _200
REMARK   91  A    between atoms: _199  and  _202
REMARK   92  A    between atoms: _202  and  _203
REMARK   93  A    between atoms: _206  and  _208
REMARK   94  A    between atoms: _208  and  _209
REMARK   95  A    between atoms: _208  and  _211
REMARK   96  A    between atoms: _211  and  _212
REMARK   97  A    between atoms: _215  and  _217
REMARK   98  A    between atoms: _217  and  _218
REMARK   99  A    between atoms: _220  and  _222
REMARK  100  A    between atoms: _222  and  _223
REMARK  101  A    between atoms: _222  and  _225
REMARK  102  A    between atoms: _225  and  _226
REMARK  103  A    between atoms: _229  and  _231
REMARK  104  A    between atoms: _231  and  _232
REMARK  105  A    between atoms: _234  and  _236
REMARK  106  A    between atoms: _236  and  _237
REMARK  107  A    between atoms: _236  and  _239
REMARK  108  A    between atoms: _239  and  _240
REMARK  109  A    between atoms: _240  and  _241
REMARK  110  A    between atoms: _243  and  _245
REMARK  111  A    between atoms: _245  and  _246
REMARK  112  A    between atoms: _245  and  _248
REMARK  113  A    between atoms: _248  and  _249
REMARK  114  A    between atoms: _252  and  _254
REMARK  115  A    between atoms: _254  and  _255
REMARK  116  A    between atoms: _254  and  _257
REMARK  117  A    between atoms: _257  and  _258
REMARK  118  A    between atoms: _258  and  _259
REMARK  119  A    between atoms: _259  and  _260
REMARK  120  A    between atoms: _260  and  _261
REMARK  121  A    between atoms: _265  and  _267
REMARK  122  A    between atoms: _267  and  _268
REMARK  123  A    between atoms: _271  and  _273
REMARK  124  A    between atoms: _273  and  _274
REMARK  125  A    between atoms: _273  and  _276
REMARK  126  A    between atoms: _276  and  _277
REMARK  127  A    between atoms: _280  and  _282
REMARK  128  A    between atoms: _282  and  _283
REMARK  129  A    between atoms: _282  and  _285
REMARK  130  A    between atoms: _285  and  _286
REMARK  131  A    between atoms: _289  and  _291
REMARK  132  A    between atoms: _291  and  _292
REMARK  133  A    between atoms: _291  and  _294
REMARK  134  A    between atoms: _294  and  _295
REMARK  135  A    between atoms: _298  and  _300
REMARK  136  A    between atoms: _300  and  _301
REMARK  137  A    between atoms: _300  and  _303
REMARK  138  A    between atoms: _303  and  _304
REMARK  139  A    between atoms: _309  and  _311
REMARK  140  A    between atoms: _311  and  _312
REMARK  141  A    between atoms: _311  and  _314
REMARK  142  A    between atoms: _314  and  _315
REMARK  143  A    between atoms: _320  and  _322
REMARK  144  A    between atoms: _322  and  _323
REMARK  145  A    between atoms: _322  and  _325
REMARK  146  A    between atoms: _325  and  _326
REMARK  147  A    between atoms: _329  and  _331
REMARK  148  A    between atoms: _331  and  _332
REMARK  149  A    between atoms: _334  and  _336
REMARK  150  A    between atoms: _336  and  _337
REMARK  151  A    between atoms: _336  and  _339
REMARK  152  A    between atoms: _339  and  _340
REMARK  153  A    between atoms: _343  and  _345
REMARK  154  A    between atoms: _345  and  _346
REMARK  155  A    between atoms: _345  and  _348
REMARK  156  A    between atoms: _348  and  _349
REMARK  157  A    between atoms: _352  and  _354
REMARK  158  A    between atoms: _354  and  _355
REMARK  159  A    between atoms: _358  and  _360
REMARK  160  A    between atoms: _360  and  _361
REMARK  161  A    between atoms: _360  and  _363
REMARK  162  A    between atoms: _363  and  _364
REMARK  163  A    between atoms: _364  and  _365
REMARK  164  A    between atoms: _365  and  _366
REMARK  165  A    between atoms: _366  and  _367
REMARK  166  A    between atoms: _371  and  _373
REMARK  167  A    between atoms: _373  and  _374
REMARK  168  A    between atoms: _373  and  _376
REMARK  169  A    between atoms: _376  and  _377
REMARK  170  A    between atoms: _380  and  _382
REMARK  171  A    between atoms: _382  and  _383
REMARK  172  A    between atoms: _382  and  _385
REMARK  173  A    between atoms: _385  and  _386
REMARK  174  A    between atoms: _392  and  _394
REMARK  175  A    between atoms: _394  and  _395
REMARK  176  A    between atoms: _397  and  _399
REMARK  177  A    between atoms: _399  and  _400
REMARK  178  A    between atoms: _399  and  _402
REMARK  179  A    between atoms: _405  and  _407
REMARK  180  A    between atoms: _407  and  _408
REMARK  181  A    between atoms: _410  and  _412
REMARK  182  A    between atoms: _412  and  _413
REMARK  183  A    between atoms: _412  and  _415
REMARK  184  A    between atoms: _415  and  _416
REMARK  185  A    between atoms: _422  and  _424
REMARK  186  A    between atoms: _424  and  _425
REMARK  187  A    between atoms: _424  and  _427
REMARK  188  A    between atoms: _427  and  _428
REMARK  189  A    between atoms: _433  and  _434
REMARK  190  A    between atoms: _436  and  _438
REMARK  191  A    between atoms: _438  and  _439
REMARK  192  A    between atoms: _438  and  _441
REMARK  193  A    between atoms: _441  and  _442
REMARK  194  A    between atoms: _444  and  _446
REMARK  195  A    between atoms: _446  and  _447
REMARK  196  A    between atoms: _446  and  _449
REMARK  197  A    between atoms: _449  and  _450
REMARK  198  A    between atoms: _455  and  _456
REMARK  199  A    between atoms: _458  and  _460
REMARK  200  A    between atoms: _460  and  _461
REMARK  201  A    between atoms: _460  and  _463
REMARK  202  A    between atoms: _466  and  _468
REMARK  203  A    between atoms: _468  and  _469
REMARK  204  A    between atoms: _468  and  _471
REMARK  205  A    between atoms: _471  and  _472
REMARK  206  A    between atoms: _475  and  _477
REMARK  207  A    between atoms: _477  and  _478
REMARK  208  A    between atoms: _477  and  _480
REMARK  209  A    between atoms: _483  and  _485
REMARK  210  A    between atoms: _485  and  _486
REMARK  211  A    between atoms: _485  and  _488
REMARK  212  A    between atoms: _488  and  _489
REMARK  213  A    between atoms: _492  and  _494
REMARK  214  A    between atoms: _494  and  _495
REMARK  215  A    between atoms: _494  and  _497
REMARK  216  A    between atoms: _497  and  _498
REMARK  217  A    between atoms: _501  and  _503
REMARK  218  A    between atoms: _503  and  _504
REMARK  219  A    between atoms: _503  and  _506
REMARK  220  A    between atoms: _506  and  _507
REMARK  221  A    between atoms: _507  and  _508
REMARK  222  A    between atoms: _508  and  _509
REMARK  223  A    between atoms: _509  and  _510
REMARK  224  A    between atoms: _514  and  _516
REMARK  225  A    between atoms: _516  and  _517
REMARK  226  A    between atoms: _516  and  _519
REMARK  227  A    between atoms: _519  and  _520
REMARK  228  A    between atoms: _525  and  _527
REMARK  229  A    between atoms: _527  and  _528
REMARK  230  A    between atoms: _527  and  _530
REMARK  231  A    between atoms: _530  and  _531
REMARK  232  A    between atoms: _541  and  _543
REMARK  233  A    between atoms: _543  and  _544
REMARK  234  A    between atoms: _543  and  _546
REMARK  235  A    between atoms: _546  and  _547
REMARK  236  A    between atoms: _547  and  _548
REMARK  237  A    between atoms: _551  and  _553
REMARK  238  A    between atoms: _553  and  _554
REMARK  239  A    between atoms: _553  and  _556
REMARK  240  A    between atoms: _556  and  _557
REMARK  241  A    between atoms: _559  and  _561
REMARK  242  A    between atoms: _561  and  _562
REMARK  243  A    between atoms: _561  and  _564
REMARK  244  A    between atoms: _564  and  _565
REMARK  245  A    between atoms: _571  and  _573
REMARK  246  A    between atoms: _573  and  _574
REMARK  247  A    between atoms: _573  and  _576
REMARK  248  A    between atoms: _576  and  _577
REMARK  249  A    between atoms: _580  and  _582
REMARK  250  A    between atoms: _582  and  _583
REMARK  251  A    between atoms: _582  and  _585
REMARK  252  A    between atoms: _588  and  _590
REMARK  253  A    between atoms: _590  and  _591
REMARK  254  A    between atoms: _593  and  _595
REMARK  255  A    between atoms: _595  and  _596
REMARK  256  A    between atoms: _595  and  _598
REMARK  257  A    between atoms: _598  and  _599
REMARK  258  A    between atoms: _602  and  _604
REMARK  259  A    between atoms: _604  and  _605
REMARK  260  A    between atoms: _604  and  _607
REMARK  261  A    between atoms: _607  and  _608
REMARK  262  A    between atoms: _608  and  _609
REMARK  263  A    between atoms: _609  and  _610
REMARK  264  A    between atoms: _610  and  _611
REMARK  265  A    between atoms: _615  and  _617
REMARK  266  A    between atoms: _617  and  _618
REMARK  267  A    between atoms: _617  and  _620
REMARK                            x       y       z     vdW  Elec       q    Type
REMARK                         _______ _______ _______ _____ _____    ______ ____
ROOT
ATOM      1  O   HOH     1       6.954   6.695  14.834  0.00  0.00    +0.000 OA
ENDROOT
TORSDOF 0
REMARK  Name = ../refined-set-2016/4nh7/4nh7_pocket.pdb
REMARK  267 active torsions:
REMARK  status: ('A' for Active; 'I' for Inactive)
REMARK    1  A    between atoms: _1  and  _3
REMARK    2  A    between atoms: _3  and  _4
REMARK    3  A    between atoms: _3  and  _6
REMARK    4  A    between atoms: _6  and  _7
REMARK    5  A    between atoms: _13  and  _15
REMARK    6  A    between atoms: _15  and  _16
REMARK    7  A    between atoms: _15  and  _18
REMARK    8  A    between atoms: _18  and  _19
REMARK    9  A    between atoms: _19  and  _20
REMARK   10  A    between atoms: _25  and  _27
REMARK   11  A    between atoms: _27  and  _28
REMARK   12  A    between atoms: _27  and  _30
REMARK   13  A    between atoms: _30  and  _31
REMARK   14  A    between atoms: _34  and  _36
REMARK   15  A    between atoms: _36  and  _37
REMARK   16  A    between atoms: _36  and  _39
REMARK   17  A    between atoms: _39  and  _40
REMARK   18  A    between atoms: _43  and  _45
REMARK   19  A    between atoms: _45  and  _46
REMARK   20  A    between atoms: _45  and  _48
REMARK   21  A    between atoms: _48  and  _49
REMARK   22  A    between atoms: _49  and  _50
REMARK   23  A    between atoms: _52  and  _54
REMARK   24  A    between atoms: _54  and  _55
REMARK   25  A    between atoms: _54  and  _57
REMARK   26  A    between atoms: _57  and  _58
REMARK   27  A    between atoms: _58  and  _59
REMARK   28  A    between atoms: _62  and  _64
REMARK   29  A    between atoms: _64  and  _65
REMARK   30  A    between atoms: _64  and  _67
REMARK   31  A    between atoms: _67  and  _68
REMARK   32  A    between atoms: _71  and  _73
REMARK   33  A    between atoms: _73  and  _74
REMARK   34  A    between atoms: _73  and  _76
REMARK   35  A    between atoms: _76  and  _77
REMARK   36  A    between atoms: _80  and  _82
REMARK   37  A    between atoms: _82  and  _83
REMARK   38  A    between atoms: _82  and  _85
REMARK   39  A    between atoms: _85  and  _86
REMARK   40  A    between atoms: _88  and  _90
REMARK   41  A    between atoms: _90  and  _91
REMARK   42  A    between atoms: _90  and  _93
REMARK   43  A    between atoms: _93  and  _94
REMARK   44  A    between atoms: _99  and  _101
REMARK   45  A    between atoms: _101  and  _102
REMARK   46  A    between atoms: _101  and  _104
REMARK   47  A    between atoms: _104  and  _105
REMARK   48  A    between atoms: _107  and  _109
REMARK   49  A    between atoms: _109  and  _110
REMARK   50  A    between atoms: _109  and  _112
REMARK   51  A    between atoms: _112  and  _113
REMARK   52  A    between atoms: _115  and  _117
REMARK   53  A    between atoms: _117  and  _118
REMARK   54  A    between atoms: _117  and  _120
REMARK   55  A    between atoms: _120  and  _121
REMARK   56  A    between atoms: _124  and  _126
REMARK   57  A    between atoms: _126  and  _127
REMARK   58  A    between atoms: _130  and  _132
REMARK   59  A    between atoms: _132  and  _133
REMARK   60  A    between atoms: _132  and  _135
REMARK   61  A    between atoms: _135  and  _136
REMARK   62  A    between atoms: _139  and  _141
REMARK   63  A    between atoms: _141  and  _142
REMARK   64  A    between atoms: _141  and  _144
REMARK   65  A    between atoms: _144  and  _145
REMARK   66  A    between atoms: _148  and  _150
REMARK   67  A    between atoms: _150  and  _151
REMARK   68  A    between atoms: _150  and  _153
REMARK   69  A    between atoms: _153  and  _154
REMARK   70  A    between atoms: _154  and  _155
REMARK   71  A    between atoms: _155  and  _156
REMARK   72  A    between atoms: _156  and  _157
REMARK   73  A    between atoms: _161  and  _163
REMARK   74  A    between atoms: _163  and  _164
REMARK   75  A    between atoms: _163  and  _166
REMARK   76  A    between atoms: _166  and  _167
REMARK   77  A    between atoms: _170  and  _172
REMARK   78  A    between atoms: _172  and  _173
REMARK   79  A    between atoms: _172  and  _175
REMARK   80  A    between atoms: _175  and  _176
REMARK   81  A    between atoms: _176  and  _177
REMARK   82  A    between atoms: _180  and  _182
REMARK   83  A    between atoms: _182  and  _183
REMARK   84  A    between atoms: _182  and  _185
REMARK   85  A    between atoms: _185  and  _186
REMARK   86  A    between atoms: _189  and  _191
REMARK   87  A    between atoms: _191  and  _192
REMARK   88  A    between atoms: _191  and  _194
REMARK   89  A    between atoms: _197  and  _199
REMARK   90  A    between atoms: _199  and  _200
REMARK   91  A    between atoms: _199  and  _202
REMARK   92  A    between atoms: _202  and  _203
REMARK   93  A    between atoms: _206  and  _208
REMARK   94  A    between atoms: _208  and  _209
REMARK   95  A    between atoms: _208  and  _211
REMARK   96  A    between atoms: _211  and  _212
REMARK   97  A    between atoms: _215  and  _217
REMARK   98  A    between atoms: _217  and  _218
REMARK   99  A    between atoms: _220  and  _222
REMARK  100  A    between atoms: _222  and  _223
REMARK  101  A    between atoms: _222  and  _225
REMARK  102  A    between atoms: _225  and  _226
REMARK  103  A    between atoms: _229  and  _231
REMARK  104  A    between atoms: _231  and  _232
REMARK  105  A    between atoms: _234  and  _236
REMARK  106  A    between atoms: _236  and  _237
REMARK  107  A    between atoms: _236  and  _239
REMARK  108  A    between atoms: _239  and  _240
REMARK  109  A    between atoms: _240  and  _241
REMARK  110  A    between atoms: _243  and  _245
REMARK  111  A    between atoms: _245  and  _246
REMARK  112  A    between atoms: _245  and  _248
REMARK  113  A    between atoms: _248  and  _249
REMARK  114  A    between atoms: _252  and  _254
REMARK  115  A    between atoms: _254  and  _255
REMARK  116  A    between atoms: _254  and  _257
REMARK  117  A    between atoms: _257  and  _258
REMARK  118  A    between atoms: _258  and  _259
REMARK  119  A    between atoms: _259  and  _260
REMARK  120  A    between atoms: _260  and  _261
REMARK  121  A    between atoms: _265  and  _267
REMARK  122  A    between atoms: _267  and  _268
REMARK  123  A    between atoms: _271  and  _273
REMARK  124  A    between atoms: _273  and  _274
REMARK  125  A    between atoms: _273  and  _276
REMARK  126  A    between atoms: _276  and  _277
REMARK  127  A    between atoms: _280  and  _282
REMARK  128  A    between atoms: _282  and  _283
REMARK  129  A    between atoms: _282  and  _285
REMARK  130  A    between atoms: _285  and  _286
REMARK  131  A    between atoms: _289  and  _291
REMARK  132  A    between atoms: _291  and  _292
REMARK  133  A    between atoms: _291  and  _294
REMARK  134  A    between atoms: _294  and  _295
REMARK  135  A    between atoms: _298  and  _300
REMARK  136  A    between atoms: _300  and  _301
REMARK  137  A    between atoms: _300  and  _303
REMARK  138  A    between atoms: _303  and  _304
REMARK  139  A    between atoms: _309  and  _311
REMARK  140  A    between atoms: _311  and  _312
REMARK  141  A    between atoms: _311  and  _314
REMARK  142  A    between atoms: _314  and  _315
REMARK  143  A    between atoms: _320  and  _322
REMARK  144  A    between atoms: _322  and  _323
REMARK  145  A    between atoms: _322  and  _325
REMARK  146  A    between atoms: _325  and  _326
REMARK  147  A    between atoms: _329  and  _331
REMARK  148  A    between atoms: _331  and  _332
REMARK  149  A    between atoms: _334  and  _336
REMARK  150  A    between atoms: _336  and  _337
REMARK  151  A    between atoms: _336  and  _339
REMARK  152  A    between atoms: _339  and  _340
REMARK  153  A    between atoms: _343  and  _345
REMARK  154  A    between atoms: _345  and  _346
REMARK  155  A    between atoms: _345  and  _348
REMARK  156  A    between atoms: _348  and  _349
REMARK  157  A    between atoms: _352  and  _354
REMARK  158  A    between atoms: _354  and  _355
REMARK  159  A    between atoms: _358  and  _360
REMARK  160  A    between atoms: _360  and  _361
REMARK  161  A    between atoms: _360  and  _363
REMARK  162  A    between atoms: _363  and  _364
REMARK  163  A    between atoms: _364  and  _365
REMARK  164  A    between atoms: _365  and  _366
REMARK  165  A    between atoms: _366  and  _367
REMARK  166  A    between atoms: _371  and  _373
REMARK  167  A    between atoms: _373  and  _374
REMARK  168  A    between atoms: _373  and  _376
REMARK  169  A    between atoms: _376  and  _377
REMARK  170  A    between atoms: _380  and  _382
REMARK  171  A    between atoms: _382  and  _383
REMARK  172  A    between atoms: _382  and  _385
REMARK  173  A    between atoms: _385  and  _386
REMARK  174  A    between atoms: _392  and  _394
REMARK  175  A    between atoms: _394  and  _395
REMARK  176  A    between atoms: _397  and  _399
REMARK  177  A    between atoms: _399  and  _400
REMARK  178  A    between atoms: _399  and  _402
REMARK  179  A    between atoms: _405  and  _407
REMARK  180  A    between atoms: _407  and  _408
REMARK  181  A    between atoms: _410  and  _412
REMARK  182  A    between atoms: _412  and  _413
REMARK  183  A    between atoms: _412  and  _415
REMARK  184  A    between atoms: _415  and  _416
REMARK  185  A    between atoms: _422  and  _424
REMARK  186  A    between atoms: _424  and  _425
REMARK  187  A    between atoms: _424  and  _427
REMARK  188  A    between atoms: _427  and  _428
REMARK  189  A    between atoms: _433  and  _434
REMARK  190  A    between atoms: _436  and  _438
REMARK  191  A    between atoms: _438  and  _439
REMARK  192  A    between atoms: _438  and  _441
REMARK  193  A    between atoms: _441  and  _442
REMARK  194  A    between atoms: _444  and  _446
REMARK  195  A    between atoms: _446  and  _447
REMARK  196  A    between atoms: _446  and  _449
REMARK  197  A    between atoms: _449  and  _450
REMARK  198  A    between atoms: _455  and  _456
REMARK  199  A    between atoms: _458  and  _460
REMARK  200  A    between atoms: _460  and  _461
REMARK  201  A    between atoms: _460  and  _463
REMARK  202  A    between atoms: _466  and  _468
REMARK  203  A    between atoms: _468  and  _469
REMARK  204  A    between atoms: _468  and  _471
REMARK  205  A    between atoms: _471  and  _472
REMARK  206  A    between atoms: _475  and  _477
REMARK  207  A    between atoms: _477  and  _478
REMARK  208  A    between atoms: _477  and  _480
REMARK  209  A    between atoms: _483  and  _485
REMARK  210  A    between atoms: _485  and  _486
REMARK  211  A    between atoms: _485  and  _488
REMARK  212  A    between atoms: _488  and  _489
REMARK  213  A    between atoms: _492  and  _494
REMARK  214  A    between atoms: _494  and  _495
REMARK  215  A    between atoms: _494  and  _497
REMARK  216  A    between atoms: _497  and  _498
REMARK  217  A    between atoms: _501  and  _503
REMARK  218  A    between atoms: _503  and  _504
REMARK  219  A    between atoms: _503  and  _506
REMARK  220  A    between atoms: _506  and  _507
REMARK  221  A    between atoms: _507  and  _508
REMARK  222  A    between atoms: _508  and  _509
REMARK  223  A    between atoms: _509  and  _510
REMARK  224  A    between atoms: _514  and  _516
REMARK  225  A    between atoms: _516  and  _517
REMARK  226  A    between atoms: _516  and  _519
REMARK  227  A    between atoms: _519  and  _520
REMARK  228  A    between atoms: _525  and  _527
REMARK  229  A    between atoms: _527  and  _528
REMARK  230  A    between atoms: _527  and  _530
REMARK  231  A    between atoms: _530  and  _531
REMARK  232  A    between atoms: _541  and  _543
REMARK  233  A    between atoms: _543  and  _544
REMARK  234  A    between atoms: _543  and  _546
REMARK  235  A    between atoms: _546  and  _547
REMARK  236  A    between atoms: _547  and  _548
REMARK  237  A    between atoms: _551  and  _553
REMARK  238  A    between atoms: _553  and  _554
REMARK  239  A    between atoms: _553  and  _556
REMARK  240  A    between atoms: _556  and  _557
REMARK  241  A    between atoms: _559  and  _561
REMARK  242  A    between atoms: _561  and  _562
REMARK  243  A    between atoms: _561  and  _564
REMARK  244  A    between atoms: _564  and  _565
REMARK  245  A    between atoms: _571  and  _573
REMARK  246  A    between atoms: _573  and  _574
REMARK  247  A    between atoms: _573  and  _576
REMARK  248  A    between atoms: _576  and  _577
REMARK  249  A    between atoms: _580  and  _582
REMARK  250  A    between atoms: _582  and  _583
REMARK  251  A    between atoms: _582  and  _585
REMARK  252  A    between atoms: _588  and  _590
REMARK  253  A    between atoms: _590  and  _591
REMARK  254  A    between atoms: _593  and  _595
REMARK  255  A    between atoms: _595  and  _596
REMARK  256  A    between atoms: _595  and  _598
REMARK  257  A    between atoms: _598  and  _599
REMARK  258  A    between atoms: _602  and  _604
REMARK  259  A    between atoms: _604  and  _605
REMARK  260  A    between atoms: _604  and  _607
REMARK  261  A    between atoms: _607  and  _608
REMARK  262  A    between atoms: _608  and  _609
REMARK  263  A    between atoms: _609  and  _610
REMARK  264  A    between atoms: _610  and  _611
REMARK  265  A    between atoms: _615  and  _617
REMARK  266  A    between atoms: _617  and  _618
REMARK  267  A    between atoms: _617  and  _620
REMARK                            x       y       z     vdW  Elec       q    Type
REMARK                         _______ _______ _______ _____ _____    ______ ____
ROOT
ATOM      1  O   HOH     1      11.801  14.581  22.106  0.00  0.00    +0.000 OA
ENDROOT
TORSDOF 0
REMARK  Name = ../refined-set-2016/4nh7/4nh7_pocket.pdb
REMARK  267 active torsions:
REMARK  status: ('A' for Active; 'I' for Inactive)
REMARK    1  A    between atoms: _1  and  _3
REMARK    2  A    between atoms: _3  and  _4
REMARK    3  A    between atoms: _3  and  _6
REMARK    4  A    between atoms: _6  and  _7
REMARK    5  A    between atoms: _13  and  _15
REMARK    6  A    between atoms: _15  and  _16
REMARK    7  A    between atoms: _15  and  _18
REMARK    8  A    between atoms: _18  and  _19
REMARK    9  A    between atoms: _19  and  _20
REMARK   10  A    between atoms: _25  and  _27
REMARK   11  A    between atoms: _27  and  _28
REMARK   12  A    between atoms: _27  and  _30
REMARK   13  A    between atoms: _30  and  _31
REMARK   14  A    between atoms: _34  and  _36
REMARK   15  A    between atoms: _36  and  _37
REMARK   16  A    between atoms: _36  and  _39
REMARK   17  A    between atoms: _39  and  _40
REMARK   18  A    between atoms: _43  and  _45
REMARK   19  A    between atoms: _45  and  _46
REMARK   20  A    between atoms: _45  and  _48
REMARK   21  A    between atoms: _48  and  _49
REMARK   22  A    between atoms: _49  and  _50
REMARK   23  A    between atoms: _52  and  _54
REMARK   24  A    between atoms: _54  and  _55
REMARK   25  A    between atoms: _54  and  _57
REMARK   26  A    between atoms: _57  and  _58
REMARK   27  A    between atoms: _58  and  _59
REMARK   28  A    between atoms: _62  and  _64
REMARK   29  A    between atoms: _64  and  _65
REMARK   30  A    between atoms: _64  and  _67
REMARK   31  A    between atoms: _67  and  _68
REMARK   32  A    between atoms: _71  and  _73
REMARK   33  A    between atoms: _73  and  _74
REMARK   34  A    between atoms: _73  and  _76
REMARK   35  A    between atoms: _76  and  _77
REMARK   36  A    between atoms: _80  and  _82
REMARK   37  A    between atoms: _82  and  _83
REMARK   38  A    between atoms: _82  and  _85
REMARK   39  A    between atoms: _85  and  _86
REMARK   40  A    between atoms: _88  and  _90
REMARK   41  A    between atoms: _90  and  _91
REMARK   42  A    between atoms: _90  and  _93
REMARK   43  A    between atoms: _93  and  _94
REMARK   44  A    between atoms: _99  and  _101
REMARK   45  A    between atoms: _101  and  _102
REMARK   46  A    between atoms: _101  and  _104
REMARK   47  A    between atoms: _104  and  _105
REMARK   48  A    between atoms: _107  and  _109
REMARK   49  A    between atoms: _109  and  _110
REMARK   50  A    between atoms: _109  and  _112
REMARK   51  A    between atoms: _112  and  _113
REMARK   52  A    between atoms: _115  and  _117
REMARK   53  A    between atoms: _117  and  _118
REMARK   54  A    between atoms: _117  and  _120
REMARK   55  A    between atoms: _120  and  _121
REMARK   56  A    between atoms: _124  and  _126
REMARK   57  A    between atoms: _126  and  _127
REMARK   58  A    between atoms: _130  and  _132
REMARK   59  A    between atoms: _132  and  _133
REMARK   60  A    between atoms: _132  and  _135
REMARK   61  A    between atoms: _135  and  _136
REMARK   62  A    between atoms: _139  and  _141
REMARK   63  A    between atoms: _141  and  _142
REMARK   64  A    between atoms: _141  and  _144
REMARK   65  A    between atoms: _144  and  _145
REMARK   66  A    between atoms: _148  and  _150
REMARK   67  A    between atoms: _150  and  _151
REMARK   68  A    between atoms: _150  and  _153
REMARK   69  A    between atoms: _153  and  _154
REMARK   70  A    between atoms: _154  and  _155
REMARK   71  A    between atoms: _155  and  _156
REMARK   72  A    between atoms: _156  and  _157
REMARK   73  A    between atoms: _161  and  _163
REMARK   74  A    between atoms: _163  and  _164
REMARK   75  A    between atoms: _163  and  _166
REMARK   76  A    between atoms: _166  and  _167
REMARK   77  A    between atoms: _170  and  _172
REMARK   78  A    between atoms: _172  and  _173
REMARK   79  A    between atoms: _172  and  _175
REMARK   80  A    between atoms: _175  and  _176
REMARK   81  A    between atoms: _176  and  _177
REMARK   82  A    between atoms: _180  and  _182
REMARK   83  A    between atoms: _182  and  _183
REMARK   84  A    between atoms: _182  and  _185
REMARK   85  A    between atoms: _185  and  _186
REMARK   86  A    between atoms: _189  and  _191
REMARK   87  A    between atoms: _191  and  _192
REMARK   88  A    between atoms: _191  and  _194
REMARK   89  A    between atoms: _197  and  _199
REMARK   90  A    between atoms: _199  and  _200
REMARK   91  A    between atoms: _199  and  _202
REMARK   92  A    between atoms: _202  and  _203
REMARK   93  A    between atoms: _206  and  _208
REMARK   94  A    between atoms: _208  and  _209
REMARK   95  A    between atoms: _208  and  _211
REMARK   96  A    between atoms: _211  and  _212
REMARK   97  A    between atoms: _215  and  _217
REMARK   98  A    between atoms: _217  and  _218
REMARK   99  A    between atoms: _220  and  _222
REMARK  100  A    between atoms: _222  and  _223
REMARK  101  A    between atoms: _222  and  _225
REMARK  102  A    between atoms: _225  and  _226
REMARK  103  A    between atoms: _229  and  _231
REMARK  104  A    between atoms: _231  and  _232
REMARK  105  A    between atoms: _234  and  _236
REMARK  106  A    between atoms: _236  and  _237
REMARK  107  A    between atoms: _236  and  _239
REMARK  108  A    between atoms: _239  and  _240
REMARK  109  A    between atoms: _240  and  _241
REMARK  110  A    between atoms: _243  and  _245
REMARK  111  A    between atoms: _245  and  _246
REMARK  112  A    between atoms: _245  and  _248
REMARK  113  A    between atoms: _248  and  _249
REMARK  114  A    between atoms: _252  and  _254
REMARK  115  A    between atoms: _254  and  _255
REMARK  116  A    between atoms: _254  and  _257
REMARK  117  A    between atoms: _257  and  _258
REMARK  118  A    between atoms: _258  and  _259
REMARK  119  A    between atoms: _259  and  _260
REMARK  120  A    between atoms: _260  and  _261
REMARK  121  A    between atoms: _265  and  _267
REMARK  122  A    between atoms: _267  and  _268
REMARK  123  A    between atoms: _271  and  _273
REMARK  124  A    between atoms: _273  and  _274
REMARK  125  A    between atoms: _273  and  _276
REMARK  126  A    between atoms: _276  and  _277
REMARK  127  A    between atoms: _280  and  _282
REMARK  128  A    between atoms: _282  and  _283
REMARK  129  A    between atoms: _282  and  _285
REMARK  130  A    between atoms: _285  and  _286
REMARK  131  A    between atoms: _289  and  _291
REMARK  132  A    between atoms: _291  and  _292
REMARK  133  A    between atoms: _291  and  _294
REMARK  134  A    between atoms: _294  and  _295
REMARK  135  A    between atoms: _298  and  _300
REMARK  136  A    between atoms: _300  and  _301
REMARK  137  A    between atoms: _300  and  _303
REMARK  138  A    between atoms: _303  and  _304
REMARK  139  A    between atoms: _309  and  _311
REMARK  140  A    between atoms: _311  and  _312
REMARK  141  A    between atoms: _311  and  _314
REMARK  142  A    between atoms: _314  and  _315
REMARK  143  A    between atoms: _320  and  _322
REMARK  144  A    between atoms: _322  and  _323
REMARK  145  A    between atoms: _322  and  _325
REMARK  146  A    between atoms: _325  and  _326
REMARK  147  A    between atoms: _329  and  _331
REMARK  148  A    between atoms: _331  and  _332
REMARK  149  A    between atoms: _334  and  _336
REMARK  150  A    between atoms: _336  and  _337
REMARK  151  A    between atoms: _336  and  _339
REMARK  152  A    between atoms: _339  and  _340
REMARK  153  A    between atoms: _343  and  _345
REMARK  154  A    between atoms: _345  and  _346
REMARK  155  A    between atoms: _345  and  _348
REMARK  156  A    between atoms: _348  and  _349
REMARK  157  A    between atoms: _352  and  _354
REMARK  158  A    between atoms: _354  and  _355
REMARK  159  A    between atoms: _358  and  _360
REMARK  160  A    between atoms: _360  and  _361
REMARK  161  A    between atoms: _360  and  _363
REMARK  162  A    between atoms: _363  and  _364
REMARK  163  A    between atoms: _364  and  _365
REMARK  164  A    between atoms: _365  and  _366
REMARK  165  A    between atoms: _366  and  _367
REMARK  166  A    between atoms: _371  and  _373
REMARK  167  A    between atoms: _373  and  _374
REMARK  168  A    between atoms: _373  and  _376
REMARK  169  A    between atoms: _376  and  _377
REMARK  170  A    between atoms: _380  and  _382
REMARK  171  A    between atoms: _382  and  _383
REMARK  172  A    between atoms: _382  and  _385
REMARK  173  A    between atoms: _385  and  _386
REMARK  174  A    between atoms: _392  and  _394
REMARK  175  A    between atoms: _394  and  _395
REMARK  176  A    between atoms: _397  and  _399
REMARK  177  A    between atoms: _399  and  _400
REMARK  178  A    between atoms: _399  and  _402
REMARK  179  A    between atoms: _405  and  _407
REMARK  180  A    between atoms: _407  and  _408
REMARK  181  A    between atoms: _410  and  _412
REMARK  182  A    between atoms: _412  and  _413
REMARK  183  A    between atoms: _412  and  _415
REMARK  184  A    between atoms: _415  and  _416
REMARK  185  A    between atoms: _422  and  _424
REMARK  186  A    between atoms: _424  and  _425
REMARK  187  A    between atoms: _424  and  _427
REMARK  188  A    between atoms: _427  and  _428
REMARK  189  A    between atoms: _433  and  _434
REMARK  190  A    between atoms: _436  and  _438
REMARK  191  A    between atoms: _438  and  _439
REMARK  192  A    between atoms: _438  and  _441
REMARK  193  A    between atoms: _441  and  _442
REMARK  194  A    between atoms: _444  and  _446
REMARK  195  A    between atoms: _446  and  _447
REMARK  196  A    between atoms: _446  and  _449
REMARK  197  A    between atoms: _449  and  _450
REMARK  198  A    between atoms: _455  and  _456
REMARK  199  A    between atoms: _458  and  _460
REMARK  200  A    between atoms: _460  and  _461
REMARK  201  A    between atoms: _460  and  _463
REMARK  202  A    between atoms: _466  and  _468
REMARK  203  A    between atoms: _468  and  _469
REMARK  204  A    between atoms: _468  and  _471
REMARK  205  A    between atoms: _471  and  _472
REMARK  206  A    between atoms: _475  and  _477
REMARK  207  A    between atoms: _477  and  _478
REMARK  208  A    between atoms: _477  and  _480
REMARK  209  A    between atoms: _483  and  _485
REMARK  210  A    between atoms: _485  and  _486
REMARK  211  A    between atoms: _485  and  _488
REMARK  212  A    between atoms: _488  and  _489
REMARK  213  A    between atoms: _492  and  _494
REMARK  214  A    between atoms: _494  and  _495
REMARK  215  A    between atoms: _494  and  _497
REMARK  216  A    between atoms: _497  and  _498
REMARK  217  A    between atoms: _501  and  _503
REMARK  218  A    between atoms: _503  and  _504
REMARK  219  A    between atoms: _503  and  _506
REMARK  220  A    between atoms: _506  and  _507
REMARK  221  A    between atoms: _507  and  _508
REMARK  222  A    between atoms: _508  and  _509
REMARK  223  A    between atoms: _509  and  _510
REMARK  224  A    between atoms: _514  and  _516
REMARK  225  A    between atoms: _516  and  _517
REMARK  226  A    between atoms: _516  and  _519
REMARK  227  A    between atoms: _519  and  _520
REMARK  228  A    between atoms: _525  and  _527
REMARK  229  A    between atoms: _527  and  _528
REMARK  230  A    between atoms: _527  and  _530
REMARK  231  A    between atoms: _530  and  _531
REMARK  232  A    between atoms: _541  and  _543
REMARK  233  A    between atoms: _543  and  _544
REMARK  234  A    between atoms: _543  and  _546
REMARK  235  A    between atoms: _546  and  _547
REMARK  236  A    between atoms: _547  and  _548
REMARK  237  A    between atoms: _551  and  _553
REMARK  238  A    between atoms: _553  and  _554
REMARK  239  A    between atoms: _553  and  _556
REMARK  240  A    between atoms: _556  and  _557
REMARK  241  A    between atoms: _559  and  _561
REMARK  242  A    between atoms: _561  and  _562
REMARK  243  A    between atoms: _561  and  _564
REMARK  244  A    between atoms: _564  and  _565
REMARK  245  A    between atoms: _571  and  _573
REMARK  246  A    between atoms: _573  and  _574
REMARK  247  A    between atoms: _573  and  _576
REMARK  248  A    between atoms: _576  and  _577
REMARK  249  A    between atoms: _580  and  _582
REMARK  250  A    between atoms: _582  and  _583
REMARK  251  A    between atoms: _582  and  _585
REMARK  252  A    between atoms: _588  and  _590
REMARK  253  A    between atoms: _590  and  _591
REMARK  254  A    between atoms: _593  and  _595
REMARK  255  A    between atoms: _595  and  _596
REMARK  256  A    between atoms: _595  and  _598
REMARK  257  A    between atoms: _598  and  _599
REMARK  258  A    between atoms: _602  and  _604
REMARK  259  A    between atoms: _604  and  _605
REMARK  260  A    between atoms: _604  and  _607
REMARK  261  A    between atoms: _607  and  _608
REMARK  262  A    between atoms: _608  and  _609
REMARK  263  A    between atoms: _609  and  _610
REMARK  264  A    between atoms: _610  and  _611
REMARK  265  A    between atoms: _615  and  _617
REMARK  266  A    between atoms: _617  and  _618
REMARK  267  A    between atoms: _617  and  _620
REMARK                            x       y       z     vdW  Elec       q    Type
REMARK                         _______ _______ _______ _____ _____    ______ ____
ROOT
ATOM      1  O   HOH     1      21.906  13.308  16.468  0.00  0.00    +0.000 OA
ENDROOT
TORSDOF 0
REMARK  Name = ../refined-set-2016/4nh7/4nh7_pocket.pdb
REMARK  267 active torsions:
REMARK  status: ('A' for Active; 'I' for Inactive)
REMARK    1  A    between atoms: _1  and  _3
REMARK    2  A    between atoms: _3  and  _4
REMARK    3  A    between atoms: _3  and  _6
REMARK    4  A    between atoms: _6  and  _7
REMARK    5  A    between atoms: _13  and  _15
REMARK    6  A    between atoms: _15  and  _16
REMARK    7  A    between atoms: _15  and  _18
REMARK    8  A    between atoms: _18  and  _19
REMARK    9  A    between atoms: _19  and  _20
REMARK   10  A    between atoms: _25  and  _27
REMARK   11  A    between atoms: _27  and  _28
REMARK   12  A    between atoms: _27  and  _30
REMARK   13  A    between atoms: _30  and  _31
REMARK   14  A    between atoms: _34  and  _36
REMARK   15  A    between atoms: _36  and  _37
REMARK   16  A    between atoms: _36  and  _39
REMARK   17  A    between atoms: _39  and  _40
REMARK   18  A    between atoms: _43  and  _45
REMARK   19  A    between atoms: _45  and  _46
REMARK   20  A    between atoms: _45  and  _48
REMARK   21  A    between atoms: _48  and  _49
REMARK   22  A    between atoms: _49  and  _50
REMARK   23  A    between atoms: _52  and  _54
REMARK   24  A    between atoms: _54  and  _55
REMARK   25  A    between atoms: _54  and  _57
REMARK   26  A    between atoms: _57  and  _58
REMARK   27  A    between atoms: _58  and  _59
REMARK   28  A    between atoms: _62  and  _64
REMARK   29  A    between atoms: _64  and  _65
REMARK   30  A    between atoms: _64  and  _67
REMARK   31  A    between atoms: _67  and  _68
REMARK   32  A    between atoms: _71  and  _73
REMARK   33  A    between atoms: _73  and  _74
REMARK   34  A    between atoms: _73  and  _76
REMARK   35  A    between atoms: _76  and  _77
REMARK   36  A    between atoms: _80  and  _82
REMARK   37  A    between atoms: _82  and  _83
REMARK   38  A    between atoms: _82  and  _85
REMARK   39  A    between atoms: _85  and  _86
REMARK   40  A    between atoms: _88  and  _90
REMARK   41  A    between atoms: _90  and  _91
REMARK   42  A    between atoms: _90  and  _93
REMARK   43  A    between atoms: _93  and  _94
REMARK   44  A    between atoms: _99  and  _101
REMARK   45  A    between atoms: _101  and  _102
REMARK   46  A    between atoms: _101  and  _104
REMARK   47  A    between atoms: _104  and  _105
REMARK   48  A    between atoms: _107  and  _109
REMARK   49  A    between atoms: _109  and  _110
REMARK   50  A    between atoms: _109  and  _112
REMARK   51  A    between atoms: _112  and  _113
REMARK   52  A    between atoms: _115  and  _117
REMARK   53  A    between atoms: _117  and  _118
REMARK   54  A    between atoms: _117  and  _120
REMARK   55  A    between atoms: _120  and  _121
REMARK   56  A    between atoms: _124  and  _126
REMARK   57  A    between atoms: _126  and  _127
REMARK   58  A    between atoms: _130  and  _132
REMARK   59  A    between atoms: _132  and  _133
REMARK   60  A    between atoms: _132  and  _135
REMARK   61  A    between atoms: _135  and  _136
REMARK   62  A    between atoms: _139  and  _141
REMARK   63  A    between atoms: _141  and  _142
REMARK   64  A    between atoms: _141  and  _144
REMARK   65  A    between atoms: _144  and  _145
REMARK   66  A    between atoms: _148  and  _150
REMARK   67  A    between atoms: _150  and  _151
REMARK   68  A    between atoms: _150  and  _153
REMARK   69  A    between atoms: _153  and  _154
REMARK   70  A    between atoms: _154  and  _155
REMARK   71  A    between atoms: _155  and  _156
REMARK   72  A    between atoms: _156  and  _157
REMARK   73  A    between atoms: _161  and  _163
REMARK   74  A    between atoms: _163  and  _164
REMARK   75  A    between atoms: _163  and  _166
REMARK   76  A    between atoms: _166  and  _167
REMARK   77  A    between atoms: _170  and  _172
REMARK   78  A    between atoms: _172  and  _173
REMARK   79  A    between atoms: _172  and  _175
REMARK   80  A    between atoms: _175  and  _176
REMARK   81  A    between atoms: _176  and  _177
REMARK   82  A    between atoms: _180  and  _182
REMARK   83  A    between atoms: _182  and  _183
REMARK   84  A    between atoms: _182  and  _185
REMARK   85  A    between atoms: _185  and  _186
REMARK   86  A    between atoms: _189  and  _191
REMARK   87  A    between atoms: _191  and  _192
REMARK   88  A    between atoms: _191  and  _194
REMARK   89  A    between atoms: _197  and  _199
REMARK   90  A    between atoms: _199  and  _200
REMARK   91  A    between atoms: _199  and  _202
REMARK   92  A    between atoms: _202  and  _203
REMARK   93  A    between atoms: _206  and  _208
REMARK   94  A    between atoms: _208  and  _209
REMARK   95  A    between atoms: _208  and  _211
REMARK   96  A    between atoms: _211  and  _212
REMARK   97  A    between atoms: _215  and  _217
REMARK   98  A    between atoms: _217  and  _218
REMARK   99  A    between atoms: _220  and  _222
REMARK  100  A    between atoms: _222  and  _223
REMARK  101  A    between atoms: _222  and  _225
REMARK  102  A    between atoms: _225  and  _226
REMARK  103  A    between atoms: _229  and  _231
REMARK  104  A    between atoms: _231  and  _232
REMARK  105  A    between atoms: _234  and  _236
REMARK  106  A    between atoms: _236  and  _237
REMARK  107  A    between atoms: _236  and  _239
REMARK  108  A    between atoms: _239  and  _240
REMARK  109  A    between atoms: _240  and  _241
REMARK  110  A    between atoms: _243  and  _245
REMARK  111  A    between atoms: _245  and  _246
REMARK  112  A    between atoms: _245  and  _248
REMARK  113  A    between atoms: _248  and  _249
REMARK  114  A    between atoms: _252  and  _254
REMARK  115  A    between atoms: _254  and  _255
REMARK  116  A    between atoms: _254  and  _257
REMARK  117  A    between atoms: _257  and  _258
REMARK  118  A    between atoms: _258  and  _259
REMARK  119  A    between atoms: _259  and  _260
REMARK  120  A    between atoms: _260  and  _261
REMARK  121  A    between atoms: _265  and  _267
REMARK  122  A    between atoms: _267  and  _268
REMARK  123  A    between atoms: _271  and  _273
REMARK  124  A    between atoms: _273  and  _274
REMARK  125  A    between atoms: _273  and  _276
REMARK  126  A    between atoms: _276  and  _277
REMARK  127  A    between atoms: _280  and  _282
REMARK  128  A    between atoms: _282  and  _283
REMARK  129  A    between atoms: _282  and  _285
REMARK  130  A    between atoms: _285  and  _286
REMARK  131  A    between atoms: _289  and  _291
REMARK  132  A    between atoms: _291  and  _292
REMARK  133  A    between atoms: _291  and  _294
REMARK  134  A    between atoms: _294  and  _295
REMARK  135  A    between atoms: _298  and  _300
REMARK  136  A    between atoms: _300  and  _301
REMARK  137  A    between atoms: _300  and  _303
REMARK  138  A    between atoms: _303  and  _304
REMARK  139  A    between atoms: _309  and  _311
REMARK  140  A    between atoms: _311  and  _312
REMARK  141  A    between atoms: _311  and  _314
REMARK  142  A    between atoms: _314  and  _315
REMARK  143  A    between atoms: _320  and  _322
REMARK  144  A    between atoms: _322  and  _323
REMARK  145  A    between atoms: _322  and  _325
REMARK  146  A    between atoms: _325  and  _326
REMARK  147  A    between atoms: _329  and  _331
REMARK  148  A    between atoms: _331  and  _332
REMARK  149  A    between atoms: _334  and  _336
REMARK  150  A    between atoms: _336  and  _337
REMARK  151  A    between atoms: _336  and  _339
REMARK  152  A    between atoms: _339  and  _340
REMARK  153  A    between atoms: _343  and  _345
REMARK  154  A    between atoms: _345  and  _346
REMARK  155  A    between atoms: _345  and  _348
REMARK  156  A    between atoms: _348  and  _349
REMARK  157  A    between atoms: _352  and  _354
REMARK  158  A    between atoms: _354  and  _355
REMARK  159  A    between atoms: _358  and  _360
REMARK  160  A    between atoms: _360  and  _361
REMARK  161  A    between atoms: _360  and  _363
REMARK  162  A    between atoms: _363  and  _364
REMARK  163  A    between atoms: _364  and  _365
REMARK  164  A    between atoms: _365  and  _366
REMARK  165  A    between atoms: _366  and  _367
REMARK  166  A    between atoms: _371  and  _373
REMARK  167  A    between atoms: _373  and  _374
REMARK  168  A    between atoms: _373  and  _376
REMARK  169  A    between atoms: _376  and  _377
REMARK  170  A    between atoms: _380  and  _382
REMARK  171  A    between atoms: _382  and  _383
REMARK  172  A    between atoms: _382  and  _385
REMARK  173  A    between atoms: _385  and  _386
REMARK  174  A    between atoms: _392  and  _394
REMARK  175  A    between atoms: _394  and  _395
REMARK  176  A    between atoms: _397  and  _399
REMARK  177  A    between atoms: _399  and  _400
REMARK  178  A    between atoms: _399  and  _402
REMARK  179  A    between atoms: _405  and  _407
REMARK  180  A    between atoms: _407  and  _408
REMARK  181  A    between atoms: _410  and  _412
REMARK  182  A    between atoms: _412  and  _413
REMARK  183  A    between atoms: _412  and  _415
REMARK  184  A    between atoms: _415  and  _416
REMARK  185  A    between atoms: _422  and  _424
REMARK  186  A    between atoms: _424  and  _425
REMARK  187  A    between atoms: _424  and  _427
REMARK  188  A    between atoms: _427  and  _428
REMARK  189  A    between atoms: _433  and  _434
REMARK  190  A    between atoms: _436  and  _438
REMARK  191  A    between atoms: _438  and  _439
REMARK  192  A    between atoms: _438  and  _441
REMARK  193  A    between atoms: _441  and  _442
REMARK  194  A    between atoms: _444  and  _446
REMARK  195  A    between atoms: _446  and  _447
REMARK  196  A    between atoms: _446  and  _449
REMARK  197  A    between atoms: _449  and  _450
REMARK  198  A    between atoms: _455  and  _456
REMARK  199  A    between atoms: _458  and  _460
REMARK  200  A    between atoms: _460  and  _461
REMARK  201  A    between atoms: _460  and  _463
REMARK  202  A    between atoms: _466  and  _468
REMARK  203  A    between atoms: _468  and  _469
REMARK  204  A    between atoms: _468  and  _471
REMARK  205  A    between atoms: _471  and  _472
REMARK  206  A    between atoms: _475  and  _477
REMARK  207  A    between atoms: _477  and  _478
REMARK  208  A    between atoms: _477  and  _480
REMARK  209  A    between atoms: _483  and  _485
REMARK  210  A    between atoms: _485  and  _486
REMARK  211  A    between atoms: _485  and  _488
REMARK  212  A    between atoms: _488  and  _489
REMARK  213  A    between atoms: _492  and  _494
REMARK  214  A    between atoms: _494  and  _495
REMARK  215  A    between atoms: _494  and  _497
REMARK  216  A    between atoms: _497  and  _498
REMARK  217  A    between atoms: _501  and  _503
REMARK  218  A    between atoms: _503  and  _504
REMARK  219  A    between atoms: _503  and  _506
REMARK  220  A    between atoms: _506  and  _507
REMARK  221  A    between atoms: _507  and  _508
REMARK  222  A    between atoms: _508  and  _509
REMARK  223  A    between atoms: _509  and  _510
REMARK  224  A    between atoms: _514  and  _516
REMARK  225  A    between atoms: _516  and  _517
REMARK  226  A    between atoms: _516  and  _519
REMARK  227  A    between atoms: _519  and  _520
REMARK  228  A    between atoms: _525  and  _527
REMARK  229  A    between atoms: _527  and  _528
REMARK  230  A    between atoms: _527  and  _530
REMARK  231  A    between atoms: _530  and  _531
REMARK  232  A    between atoms: _541  and  _543
REMARK  233  A    between atoms: _543  and  _544
REMARK  234  A    between atoms: _543  and  _546
REMARK  235  A    between atoms: _546  and  _547
REMARK  236  A    between atoms: _547  and  _548
REMARK  237  A    between atoms: _551  and  _553
REMARK  238  A    between atoms: _553  and  _554
REMARK  239  A    between atoms: _553  and  _556
REMARK  240  A    between atoms: _556  and  _557
REMARK  241  A    between atoms: _559  and  _561
REMARK  242  A    between atoms: _561  and  _562
REMARK  243  A    between atoms: _561  and  _564
REMARK  244  A    between atoms: _564  and  _565
REMARK  245  A    between atoms: _571  and  _573
REMARK  246  A    between atoms: _573  and  _574
REMARK  247  A    between atoms: _573  and  _576
REMARK  248  A    between atoms: _576  and  _577
REMARK  249  A    between atoms: _580  and  _582
REMARK  250  A    between atoms: _582  and  _583
REMARK  251  A    between atoms: _582  and  _585
REMARK  252  A    between atoms: _588  and  _590
REMARK  253  A    between atoms: _590  and  _591
REMARK  254  A    between atoms: _593  and  _595
REMARK  255  A    between atoms: _595  and  _596
REMARK  256  A    between atoms: _595  and  _598
REMARK  257  A    between atoms: _598  and  _599
REMARK  258  A    between atoms: _602  and  _604
REMARK  259  A    between atoms: _604  and  _605
REMARK  260  A    between atoms: _604  and  _607
REMARK  261  A    between atoms: _607  and  _608
REMARK  262  A    between atoms: _608  and  _609
REMARK  263  A    between atoms: _609  and  _610
REMARK  264  A    between atoms: _610  and  _611
REMARK  265  A    between atoms: _615  and  _617
REMARK  266  A    between atoms: _617  and  _618
REMARK  267  A    between atoms: _617  and  _620
REMARK                            x       y       z     vdW  Elec       q    Type
REMARK                         _______ _______ _______ _____ _____    ______ ____
ROOT
ATOM      1  O   HOH     1      10.130   2.566   8.714  0.00  0.00    +0.000 OA
ENDROOT
TORSDOF 0
REMARK  Name = ../refined-set-2016/4nh7/4nh7_pocket.pdb
REMARK  267 active torsions:
REMARK  status: ('A' for Active; 'I' for Inactive)
REMARK    1  A    between atoms: _1  and  _3
REMARK    2  A    between atoms: _3  and  _4
REMARK    3  A    between atoms: _3  and  _6
REMARK    4  A    between atoms: _6  and  _7
REMARK    5  A    between atoms: _13  and  _15
REMARK    6  A    between atoms: _15  and  _16
REMARK    7  A    between atoms: _15  and  _18
REMARK    8  A    between atoms: _18  and  _19
REMARK    9  A    between atoms: _19  and  _20
REMARK   10  A    between atoms: _25  and  _27
REMARK   11  A    between atoms: _27  and  _28
REMARK   12  A    between atoms: _27  and  _30
REMARK   13  A    between atoms: _30  and  _31
REMARK   14  A    between atoms: _34  and  _36
REMARK   15  A    between atoms: _36  and  _37
REMARK   16  A    between atoms: _36  and  _39
REMARK   17  A    between atoms: _39  and  _40
REMARK   18  A    between atoms: _43  and  _45
REMARK   19  A    between atoms: _45  and  _46
REMARK   20  A    between atoms: _45  and  _48
REMARK   21  A    between atoms: _48  and  _49
REMARK   22  A    between atoms: _49  and  _50
REMARK   23  A    between atoms: _52  and  _54
REMARK   24  A    between atoms: _54  and  _55
REMARK   25  A    between atoms: _54  and  _57
REMARK   26  A    between atoms: _57  and  _58
REMARK   27  A    between atoms: _58  and  _59
REMARK   28  A    between atoms: _62  and  _64
REMARK   29  A    between atoms: _64  and  _65
REMARK   30  A    between atoms: _64  and  _67
REMARK   31  A    between atoms: _67  and  _68
REMARK   32  A    between atoms: _71  and  _73
REMARK   33  A    between atoms: _73  and  _74
REMARK   34  A    between atoms: _73  and  _76
REMARK   35  A    between atoms: _76  and  _77
REMARK   36  A    between atoms: _80  and  _82
REMARK   37  A    between atoms: _82  and  _83
REMARK   38  A    between atoms: _82  and  _85
REMARK   39  A    between atoms: _85  and  _86
REMARK   40  A    between atoms: _88  and  _90
REMARK   41  A    between atoms: _90  and  _91
REMARK   42  A    between atoms: _90  and  _93
REMARK   43  A    between atoms: _93  and  _94
REMARK   44  A    between atoms: _99  and  _101
REMARK   45  A    between atoms: _101  and  _102
REMARK   46  A    between atoms: _101  and  _104
REMARK   47  A    between atoms: _104  and  _105
REMARK   48  A    between atoms: _107  and  _109
REMARK   49  A    between atoms: _109  and  _110
REMARK   50  A    between atoms: _109  and  _112
REMARK   51  A    between atoms: _112  and  _113
REMARK   52  A    between atoms: _115  and  _117
REMARK   53  A    between atoms: _117  and  _118
REMARK   54  A    between atoms: _117  and  _120
REMARK   55  A    between atoms: _120  and  _121
REMARK   56  A    between atoms: _124  and  _126
REMARK   57  A    between atoms: _126  and  _127
REMARK   58  A    between atoms: _130  and  _132
REMARK   59  A    between atoms: _132  and  _133
REMARK   60  A    between atoms: _132  and  _135
REMARK   61  A    between atoms: _135  and  _136
REMARK   62  A    between atoms: _139  and  _141
REMARK   63  A    between atoms: _141  and  _142
REMARK   64  A    between atoms: _141  and  _144
REMARK   65  A    between atoms: _144  and  _145
REMARK   66  A    between atoms: _148  and  _150
REMARK   67  A    between atoms: _150  and  _151
REMARK   68  A    between atoms: _150  and  _153
REMARK   69  A    between atoms: _153  and  _154
REMARK   70  A    between atoms: _154  and  _155
REMARK   71  A    between atoms: _155  and  _156
REMARK   72  A    between atoms: _156  and  _157
REMARK   73  A    between atoms: _161  and  _163
REMARK   74  A    between atoms: _163  and  _164
REMARK   75  A    between atoms: _163  and  _166
REMARK   76  A    between atoms: _166  and  _167
REMARK   77  A    between atoms: _170  and  _172
REMARK   78  A    between atoms: _172  and  _173
REMARK   79  A    between atoms: _172  and  _175
REMARK   80  A    between atoms: _175  and  _176
REMARK   81  A    between atoms: _176  and  _177
REMARK   82  A    between atoms: _180  and  _182
REMARK   83  A    between atoms: _182  and  _183
REMARK   84  A    between atoms: _182  and  _185
REMARK   85  A    between atoms: _185  and  _186
REMARK   86  A    between atoms: _189  and  _191
REMARK   87  A    between atoms: _191  and  _192
REMARK   88  A    between atoms: _191  and  _194
REMARK   89  A    between atoms: _197  and  _199
REMARK   90  A    between atoms: _199  and  _200
REMARK   91  A    between atoms: _199  and  _202
REMARK   92  A    between atoms: _202  and  _203
REMARK   93  A    between atoms: _206  and  _208
REMARK   94  A    between atoms: _208  and  _209
REMARK   95  A    between atoms: _208  and  _211
REMARK   96  A    between atoms: _211  and  _212
REMARK   97  A    between atoms: _215  and  _217
REMARK   98  A    between atoms: _217  and  _218
REMARK   99  A    between atoms: _220  and  _222
REMARK  100  A    between atoms: _222  and  _223
REMARK  101  A    between atoms: _222  and  _225
REMARK  102  A    between atoms: _225  and  _226
REMARK  103  A    between atoms: _229  and  _231
REMARK  104  A    between atoms: _231  and  _232
REMARK  105  A    between atoms: _234  and  _236
REMARK  106  A    between atoms: _236  and  _237
REMARK  107  A    between atoms: _236  and  _239
REMARK  108  A    between atoms: _239  and  _240
REMARK  109  A    between atoms: _240  and  _241
REMARK  110  A    between atoms: _243  and  _245
REMARK  111  A    between atoms: _245  and  _246
REMARK  112  A    between atoms: _245  and  _248
REMARK  113  A    between atoms: _248  and  _249
REMARK  114  A    between atoms: _252  and  _254
REMARK  115  A    between atoms: _254  and  _255
REMARK  116  A    between atoms: _254  and  _257
REMARK  117  A    between atoms: _257  and  _258
REMARK  118  A    between atoms: _258  and  _259
REMARK  119  A    between atoms: _259  and  _260
REMARK  120  A    between atoms: _260  and  _261
REMARK  121  A    between atoms: _265  and  _267
REMARK  122  A    between atoms: _267  and  _268
REMARK  123  A    between atoms: _271  and  _273
REMARK  124  A    between atoms: _273  and  _274
REMARK  125  A    between atoms: _273  and  _276
REMARK  126  A    between atoms: _276  and  _277
REMARK  127  A    between atoms: _280  and  _282
REMARK  128  A    between atoms: _282  and  _283
REMARK  129  A    between atoms: _282  and  _285
REMARK  130  A    between atoms: _285  and  _286
REMARK  131  A    between atoms: _289  and  _291
REMARK  132  A    between atoms: _291  and  _292
REMARK  133  A    between atoms: _291  and  _294
REMARK  134  A    between atoms: _294  and  _295
REMARK  135  A    between atoms: _298  and  _300
REMARK  136  A    between atoms: _300  and  _301
REMARK  137  A    between atoms: _300  and  _303
REMARK  138  A    between atoms: _303  and  _304
REMARK  139  A    between atoms: _309  and  _311
REMARK  140  A    between atoms: _311  and  _312
REMARK  141  A    between atoms: _311  and  _314
REMARK  142  A    between atoms: _314  and  _315
REMARK  143  A    between atoms: _320  and  _322
REMARK  144  A    between atoms: _322  and  _323
REMARK  145  A    between atoms: _322  and  _325
REMARK  146  A    between atoms: _325  and  _326
REMARK  147  A    between atoms: _329  and  _331
REMARK  148  A    between atoms: _331  and  _332
REMARK  149  A    between atoms: _334  and  _336
REMARK  150  A    between atoms: _336  and  _337
REMARK  151  A    between atoms: _336  and  _339
REMARK  152  A    between atoms: _339  and  _340
REMARK  153  A    between atoms: _343  and  _345
REMARK  154  A    between atoms: _345  and  _346
REMARK  155  A    between atoms: _345  and  _348
REMARK  156  A    between atoms: _348  and  _349
REMARK  157  A    between atoms: _352  and  _354
REMARK  158  A    between atoms: _354  and  _355
REMARK  159  A    between atoms: _358  and  _360
REMARK  160  A    between atoms: _360  and  _361
REMARK  161  A    between atoms: _360  and  _363
REMARK  162  A    between atoms: _363  and  _364
REMARK  163  A    between atoms: _364  and  _365
REMARK  164  A    between atoms: _365  and  _366
REMARK  165  A    between atoms: _366  and  _367
REMARK  166  A    between atoms: _371  and  _373
REMARK  167  A    between atoms: _373  and  _374
REMARK  168  A    between atoms: _373  and  _376
REMARK  169  A    between atoms: _376  and  _377
REMARK  170  A    between atoms: _380  and  _382
REMARK  171  A    between atoms: _382  and  _383
REMARK  172  A    between atoms: _382  and  _385
REMARK  173  A    between atoms: _385  and  _386
REMARK  174  A    between atoms: _392  and  _394
REMARK  175  A    between atoms: _394  and  _395
REMARK  176  A    between atoms: _397  and  _399
REMARK  177  A    between atoms: _399  and  _400
REMARK  178  A    between atoms: _399  and  _402
REMARK  179  A    between atoms: _405  and  _407
REMARK  180  A    between atoms: _407  and  _408
REMARK  181  A    between atoms: _410  and  _412
REMARK  182  A    between atoms: _412  and  _413
REMARK  183  A    between atoms: _412  and  _415
REMARK  184  A    between atoms: _415  and  _416
REMARK  185  A    between atoms: _422  and  _424
REMARK  186  A    between atoms: _424  and  _425
REMARK  187  A    between atoms: _424  and  _427
REMARK  188  A    between atoms: _427  and  _428
REMARK  189  A    between atoms: _433  and  _434
REMARK  190  A    between atoms: _436  and  _438
REMARK  191  A    between atoms: _438  and  _439
REMARK  192  A    between atoms: _438  and  _441
REMARK  193  A    between atoms: _441  and  _442
REMARK  194  A    between atoms: _444  and  _446
REMARK  195  A    between atoms: _446  and  _447
REMARK  196  A    between atoms: _446  and  _449
REMARK  197  A    between atoms: _449  and  _450
REMARK  198  A    between atoms: _455  and  _456
REMARK  199  A    between atoms: _458  and  _460
REMARK  200  A    between atoms: _460  and  _461
REMARK  201  A    between atoms: _460  and  _463
REMARK  202  A    between atoms: _466  and  _468
REMARK  203  A    between atoms: _468  and  _469
REMARK  204  A    between atoms: _468  and  _471
REMARK  205  A    between atoms: _471  and  _472
REMARK  206  A    between atoms: _475  and  _477
REMARK  207  A    between atoms: _477  and  _478
REMARK  208  A    between atoms: _477  and  _480
REMARK  209  A    between atoms: _483  and  _485
REMARK  210  A    between atoms: _485  and  _486
REMARK  211  A    between atoms: _485  and  _488
REMARK  212  A    between atoms: _488  and  _489
REMARK  213  A    between atoms: _492  and  _494
REMARK  214  A    between atoms: _494  and  _495
REMARK  215  A    between atoms: _494  and  _497
REMARK  216  A    between atoms: _497  and  _498
REMARK  217  A    between atoms: _501  and  _503
REMARK  218  A    between atoms: _503  and  _504
REMARK  219  A    between atoms: _503  and  _506
REMARK  220  A    between atoms: _506  and  _507
REMARK  221  A    between atoms: _507  and  _508
REMARK  222  A    between atoms: _508  and  _509
REMARK  223  A    between atoms: _509  and  _510
REMARK  224  A    between atoms: _514  and  _516
REMARK  225  A    between atoms: _516  and  _517
REMARK  226  A    between atoms: _516  and  _519
REMARK  227  A    between atoms: _519  and  _520
REMARK  228  A    between atoms: _525  and  _527
REMARK  229  A    between atoms: _527  and  _528
REMARK  230  A    between atoms: _527  and  _530
REMARK  231  A    between atoms: _530  and  _531
REMARK  232  A    between atoms: _541  and  _543
REMARK  233  A    between atoms: _543  and  _544
REMARK  234  A    between atoms: _543  and  _546
REMARK  235  A    between atoms: _546  and  _547
REMARK  236  A    between atoms: _547  and  _548
REMARK  237  A    between atoms: _551  and  _553
REMARK  238  A    between atoms: _553  and  _554
REMARK  239  A    between atoms: _553  and  _556
REMARK  240  A    between atoms: _556  and  _557
REMARK  241  A    between atoms: _559  and  _561
REMARK  242  A    between atoms: _561  and  _562
REMARK  243  A    between atoms: _561  and  _564
REMARK  244  A    between atoms: _564  and  _565
REMARK  245  A    between atoms: _571  and  _573
REMARK  246  A    between atoms: _573  and  _574
REMARK  247  A    between atoms: _573  and  _576
REMARK  248  A    between atoms: _576  and  _577
REMARK  249  A    between atoms: _580  and  _582
REMARK  250  A    between atoms: _582  and  _583
REMARK  251  A    between atoms: _582  and  _585
REMARK  252  A    between atoms: _588  and  _590
REMARK  253  A    between atoms: _590  and  _591
REMARK  254  A    between atoms: _593  and  _595
REMARK  255  A    between atoms: _595  and  _596
REMARK  256  A    between atoms: _595  and  _598
REMARK  257  A    between atoms: _598  and  _599
REMARK  258  A    between atoms: _602  and  _604
REMARK  259  A    between atoms: _604  and  _605
REMARK  260  A    between atoms: _604  and  _607
REMARK  261  A    between atoms: _607  and  _608
REMARK  262  A    between atoms: _608  and  _609
REMARK  263  A    between atoms: _609  and  _610
REMARK  264  A    between atoms: _610  and  _611
REMARK  265  A    between atoms: _615  and  _617
REMARK  266  A    between atoms: _617  and  _618
REMARK  267  A    between atoms: _617  and  _620
REMARK                            x       y       z     vdW  Elec       q    Type
REMARK                         _______ _______ _______ _____ _____    ______ ____
ROOT
ATOM      1  O   HOH     1      18.195   2.255  16.498  0.00  0.00    +0.000 OA
ENDROOT
TORSDOF 0
REMARK  Name = ../refined-set-2016/4nh7/4nh7_pocket.pdb
REMARK  267 active torsions:
REMARK  status: ('A' for Active; 'I' for Inactive)
REMARK    1  A    between atoms: _1  and  _3
REMARK    2  A    between atoms: _3  and  _4
REMARK    3  A    between atoms: _3  and  _6
REMARK    4  A    between atoms: _6  and  _7
REMARK    5  A    between atoms: _13  and  _15
REMARK    6  A    between atoms: _15  and  _16
REMARK    7  A    between atoms: _15  and  _18
REMARK    8  A    between atoms: _18  and  _19
REMARK    9  A    between atoms: _19  and  _20
REMARK   10  A    between atoms: _25  and  _27
REMARK   11  A    between atoms: _27  and  _28
REMARK   12  A    between atoms: _27  and  _30
REMARK   13  A    between atoms: _30  and  _31
REMARK   14  A    between atoms: _34  and  _36
REMARK   15  A    between atoms: _36  and  _37
REMARK   16  A    between atoms: _36  and  _39
REMARK   17  A    between atoms: _39  and  _40
REMARK   18  A    between atoms: _43  and  _45
REMARK   19  A    between atoms: _45  and  _46
REMARK   20  A    between atoms: _45  and  _48
REMARK   21  A    between atoms: _48  and  _49
REMARK   22  A    between atoms: _49  and  _50
REMARK   23  A    between atoms: _52  and  _54
REMARK   24  A    between atoms: _54  and  _55
REMARK   25  A    between atoms: _54  and  _57
REMARK   26  A    between atoms: _57  and  _58
REMARK   27  A    between atoms: _58  and  _59
REMARK   28  A    between atoms: _62  and  _64
REMARK   29  A    between atoms: _64  and  _65
REMARK   30  A    between atoms: _64  and  _67
REMARK   31  A    between atoms: _67  and  _68
REMARK   32  A    between atoms: _71  and  _73
REMARK   33  A    between atoms: _73  and  _74
REMARK   34  A    between atoms: _73  and  _76
REMARK   35  A    between atoms: _76  and  _77
REMARK   36  A    between atoms: _80  and  _82
REMARK   37  A    between atoms: _82  and  _83
REMARK   38  A    between atoms: _82  and  _85
REMARK   39  A    between atoms: _85  and  _86
REMARK   40  A    between atoms: _88  and  _90
REMARK   41  A    between atoms: _90  and  _91
REMARK   42  A    between atoms: _90  and  _93
REMARK   43  A    between atoms: _93  and  _94
REMARK   44  A    between atoms: _99  and  _101
REMARK   45  A    between atoms: _101  and  _102
REMARK   46  A    between atoms: _101  and  _104
REMARK   47  A    between atoms: _104  and  _105
REMARK   48  A    between atoms: _107  and  _109
REMARK   49  A    between atoms: _109  and  _110
REMARK   50  A    between atoms: _109  and  _112
REMARK   51  A    between atoms: _112  and  _113
REMARK   52  A    between atoms: _115  and  _117
REMARK   53  A    between atoms: _117  and  _118
REMARK   54  A    between atoms: _117  and  _120
REMARK   55  A    between atoms: _120  and  _121
REMARK   56  A    between atoms: _124  and  _126
REMARK   57  A    between atoms: _126  and  _127
REMARK   58  A    between atoms: _130  and  _132
REMARK   59  A    between atoms: _132  and  _133
REMARK   60  A    between atoms: _132  and  _135
REMARK   61  A    between atoms: _135  and  _136
REMARK   62  A    between atoms: _139  and  _141
REMARK   63  A    between atoms: _141  and  _142
REMARK   64  A    between atoms: _141  and  _144
REMARK   65  A    between atoms: _144  and  _145
REMARK   66  A    between atoms: _148  and  _150
REMARK   67  A    between atoms: _150  and  _151
REMARK   68  A    between atoms: _150  and  _153
REMARK   69  A    between atoms: _153  and  _154
REMARK   70  A    between atoms: _154  and  _155
REMARK   71  A    between atoms: _155  and  _156
REMARK   72  A    between atoms: _156  and  _157
REMARK   73  A    between atoms: _161  and  _163
REMARK   74  A    between atoms: _163  and  _164
REMARK   75  A    between atoms: _163  and  _166
REMARK   76  A    between atoms: _166  and  _167
REMARK   77  A    between atoms: _170  and  _172
REMARK   78  A    between atoms: _172  and  _173
REMARK   79  A    between atoms: _172  and  _175
REMARK   80  A    between atoms: _175  and  _176
REMARK   81  A    between atoms: _176  and  _177
REMARK   82  A    between atoms: _180  and  _182
REMARK   83  A    between atoms: _182  and  _183
REMARK   84  A    between atoms: _182  and  _185
REMARK   85  A    between atoms: _185  and  _186
REMARK   86  A    between atoms: _189  and  _191
REMARK   87  A    between atoms: _191  and  _192
REMARK   88  A    between atoms: _191  and  _194
REMARK   89  A    between atoms: _197  and  _199
REMARK   90  A    between atoms: _199  and  _200
REMARK   91  A    between atoms: _199  and  _202
REMARK   92  A    between atoms: _202  and  _203
REMARK   93  A    between atoms: _206  and  _208
REMARK   94  A    between atoms: _208  and  _209
REMARK   95  A    between atoms: _208  and  _211
REMARK   96  A    between atoms: _211  and  _212
REMARK   97  A    between atoms: _215  and  _217
REMARK   98  A    between atoms: _217  and  _218
REMARK   99  A    between atoms: _220  and  _222
REMARK  100  A    between atoms: _222  and  _223
REMARK  101  A    between atoms: _222  and  _225
REMARK  102  A    between atoms: _225  and  _226
REMARK  103  A    between atoms: _229  and  _231
REMARK  104  A    between atoms: _231  and  _232
REMARK  105  A    between atoms: _234  and  _236
REMARK  106  A    between atoms: _236  and  _237
REMARK  107  A    between atoms: _236  and  _239
REMARK  108  A    between atoms: _239  and  _240
REMARK  109  A    between atoms: _240  and  _241
REMARK  110  A    between atoms: _243  and  _245
REMARK  111  A    between atoms: _245  and  _246
REMARK  112  A    between atoms: _245  and  _248
REMARK  113  A    between atoms: _248  and  _249
REMARK  114  A    between atoms: _252  and  _254
REMARK  115  A    between atoms: _254  and  _255
REMARK  116  A    between atoms: _254  and  _257
REMARK  117  A    between atoms: _257  and  _258
REMARK  118  A    between atoms: _258  and  _259
REMARK  119  A    between atoms: _259  and  _260
REMARK  120  A    between atoms: _260  and  _261
REMARK  121  A    between atoms: _265  and  _267
REMARK  122  A    between atoms: _267  and  _268
REMARK  123  A    between atoms: _271  and  _273
REMARK  124  A    between atoms: _273  and  _274
REMARK  125  A    between atoms: _273  and  _276
REMARK  126  A    between atoms: _276  and  _277
REMARK  127  A    between atoms: _280  and  _282
REMARK  128  A    between atoms: _282  and  _283
REMARK  129  A    between atoms: _282  and  _285
REMARK  130  A    between atoms: _285  and  _286
REMARK  131  A    between atoms: _289  and  _291
REMARK  132  A    between atoms: _291  and  _292
REMARK  133  A    between atoms: _291  and  _294
REMARK  134  A    between atoms: _294  and  _295
REMARK  135  A    between atoms: _298  and  _300
REMARK  136  A    between atoms: _300  and  _301
REMARK  137  A    between atoms: _300  and  _303
REMARK  138  A    between atoms: _303  and  _304
REMARK  139  A    between atoms: _309  and  _311
REMARK  140  A    between atoms: _311  and  _312
REMARK  141  A    between atoms: _311  and  _314
REMARK  142  A    between atoms: _314  and  _315
REMARK  143  A    between atoms: _320  and  _322
REMARK  144  A    between atoms: _322  and  _323
REMARK  145  A    between atoms: _322  and  _325
REMARK  146  A    between atoms: _325  and  _326
REMARK  147  A    between atoms: _329  and  _331
REMARK  148  A    between atoms: _331  and  _332
REMARK  149  A    between atoms: _334  and  _336
REMARK  150  A    between atoms: _336  and  _337
REMARK  151  A    between atoms: _336  and  _339
REMARK  152  A    between atoms: _339  and  _340
REMARK  153  A    between atoms: _343  and  _345
REMARK  154  A    between atoms: _345  and  _346
REMARK  155  A    between atoms: _345  and  _348
REMARK  156  A    between atoms: _348  and  _349
REMARK  157  A    between atoms: _352  and  _354
REMARK  158  A    between atoms: _354  and  _355
REMARK  159  A    between atoms: _358  and  _360
REMARK  160  A    between atoms: _360  and  _361
REMARK  161  A    between atoms: _360  and  _363
REMARK  162  A    between atoms: _363  and  _364
REMARK  163  A    between atoms: _364  and  _365
REMARK  164  A    between atoms: _365  and  _366
REMARK  165  A    between atoms: _366  and  _367
REMARK  166  A    between atoms: _371  and  _373
REMARK  167  A    between atoms: _373  and  _374
REMARK  168  A    between atoms: _373  and  _376
REMARK  169  A    between atoms: _376  and  _377
REMARK  170  A    between atoms: _380  and  _382
REMARK  171  A    between atoms: _382  and  _383
REMARK  172  A    between atoms: _382  and  _385
REMARK  173  A    between atoms: _385  and  _386
REMARK  174  A    between atoms: _392  and  _394
REMARK  175  A    between atoms: _394  and  _395
REMARK  176  A    between atoms: _397  and  _399
REMARK  177  A    between atoms: _399  and  _400
REMARK  178  A    between atoms: _399  and  _402
REMARK  179  A    between atoms: _405  and  _407
REMARK  180  A    between atoms: _407  and  _408
REMARK  181  A    between atoms: _410  and  _412
REMARK  182  A    between atoms: _412  and  _413
REMARK  183  A    between atoms: _412  and  _415
REMARK  184  A    between atoms: _415  and  _416
REMARK  185  A    between atoms: _422  and  _424
REMARK  186  A    between atoms: _424  and  _425
REMARK  187  A    between atoms: _424  and  _427
REMARK  188  A    between atoms: _427  and  _428
REMARK  189  A    between atoms: _433  and  _434
REMARK  190  A    between atoms: _436  and  _438
REMARK  191  A    between atoms: _438  and  _439
REMARK  192  A    between atoms: _438  and  _441
REMARK  193  A    between atoms: _441  and  _442
REMARK  194  A    between atoms: _444  and  _446
REMARK  195  A    between atoms: _446  and  _447
REMARK  196  A    between atoms: _446  and  _449
REMARK  197  A    between atoms: _449  and  _450
REMARK  198  A    between atoms: _455  and  _456
REMARK  199  A    between atoms: _458  and  _460
REMARK  200  A    between atoms: _460  and  _461
REMARK  201  A    between atoms: _460  and  _463
REMARK  202  A    between atoms: _466  and  _468
REMARK  203  A    between atoms: _468  and  _469
REMARK  204  A    between atoms: _468  and  _471
REMARK  205  A    between atoms: _471  and  _472
REMARK  206  A    between atoms: _475  and  _477
REMARK  207  A    between atoms: _477  and  _478
REMARK  208  A    between atoms: _477  and  _480
REMARK  209  A    between atoms: _483  and  _485
REMARK  210  A    between atoms: _485  and  _486
REMARK  211  A    between atoms: _485  and  _488
REMARK  212  A    between atoms: _488  and  _489
REMARK  213  A    between atoms: _492  and  _494
REMARK  214  A    between atoms: _494  and  _495
REMARK  215  A    between atoms: _494  and  _497
REMARK  216  A    between atoms: _497  and  _498
REMARK  217  A    between atoms: _501  and  _503
REMARK  218  A    between atoms: _503  and  _504
REMARK  219  A    between atoms: _503  and  _506
REMARK  220  A    between atoms: _506  and  _507
REMARK  221  A    between atoms: _507  and  _508
REMARK  222  A    between atoms: _508  and  _509
REMARK  223  A    between atoms: _509  and  _510
REMARK  224  A    between atoms: _514  and  _516
REMARK  225  A    between atoms: _516  and  _517
REMARK  226  A    between atoms: _516  and  _519
REMARK  227  A    between atoms: _519  and  _520
REMARK  228  A    between atoms: _525  and  _527
REMARK  229  A    between atoms: _527  and  _528
REMARK  230  A    between atoms: _527  and  _530
REMARK  231  A    between atoms: _530  and  _531
REMARK  232  A    between atoms: _541  and  _543
REMARK  233  A    between atoms: _543  and  _544
REMARK  234  A    between atoms: _543  and  _546
REMARK  235  A    between atoms: _546  and  _547
REMARK  236  A    between atoms: _547  and  _548
REMARK  237  A    between atoms: _551  and  _553
REMARK  238  A    between atoms: _553  and  _554
REMARK  239  A    between atoms: _553  and  _556
REMARK  240  A    between atoms: _556  and  _557
REMARK  241  A    between atoms: _559  and  _561
REMARK  242  A    between atoms: _561  and  _562
REMARK  243  A    between atoms: _561  and  _564
REMARK  244  A    between atoms: _564  and  _565
REMARK  245  A    between atoms: _571  and  _573
REMARK  246  A    between atoms: _573  and  _574
REMARK  247  A    between atoms: _573  and  _576
REMARK  248  A    between atoms: _576  and  _577
REMARK  249  A    between atoms: _580  and  _582
REMARK  250  A    between atoms: _582  and  _583
REMARK  251  A    between atoms: _582  and  _585
REMARK  252  A    between atoms: _588  and  _590
REMARK  253  A    between atoms: _590  and  _591
REMARK  254  A    between atoms: _593  and  _595
REMARK  255  A    between atoms: _595  and  _596
REMARK  256  A    between atoms: _595  and  _598
REMARK  257  A    between atoms: _598  and  _599
REMARK  258  A    between atoms: _602  and  _604
REMARK  259  A    between atoms: _604  and  _605
REMARK  260  A    between atoms: _604  and  _607
REMARK  261  A    between atoms: _607  and  _608
REMARK  262  A    between atoms: _608  and  _609
REMARK  263  A    between atoms: _609  and  _610
REMARK  264  A    between atoms: _610  and  _611
REMARK  265  A    between atoms: _615  and  _617
REMARK  266  A    between atoms: _617  and  _618
REMARK  267  A    between atoms: _617  and  _620
REMARK                            x       y       z     vdW  Elec       q    Type
REMARK                         _______ _______ _______ _____ _____    ______ ____
ROOT
ATOM      1  O   HOH     1      17.290   2.854  20.047  0.00  0.00    +0.000 OA
ENDROOT
TORSDOF 0
