REMARK  Name = ../refined-set-2016/3ipu/3ipu_pocket.pdb
REMARK  276 active torsions:
REMARK  status: ('A' for Active; 'I' for Inactive)
REMARK    1  A    between atoms: _1  and  _3
REMARK    2  A    between atoms: _3  and  _4
REMARK    3  A    between atoms: _3  and  _6
REMARK    4  A    between atoms: _6  and  _7
REMARK    5  A    between atoms: _12  and  _14
REMARK    6  A    between atoms: _14  and  _15
REMARK    7  A    between atoms: _14  and  _17
REMARK    8  A    between atoms: _17  and  _18
REMARK    9  A    between atoms: _18  and  _19
REMARK   10  A    between atoms: _19  and  _20
REMARK   11  A    between atoms: _29  and  _31
REMARK   12  A    between atoms: _31  and  _32
REMARK   13  A    between atoms: _31  and  _34
REMARK   14  A    between atoms: _34  and  _35
REMARK   15  A    between atoms: _37  and  _39
REMARK   16  A    between atoms: _39  and  _40
REMARK   17  A    between atoms: _39  and  _42
REMARK   18  A    between atoms: _42  and  _43
REMARK   19  A    between atoms: _49  and  _51
REMARK   20  A    between atoms: _51  and  _52
REMARK   21  A    between atoms: _51  and  _54
REMARK   22  A    between atoms: _54  and  _55
REMARK   23  A    between atoms: _55  and  _56
REMARK   24  A    between atoms: _56  and  _57
REMARK   25  A    between atoms: _66  and  _68
REMARK   26  A    between atoms: _68  and  _69
REMARK   27  A    between atoms: _68  and  _71
REMARK   28  A    between atoms: _71  and  _72
REMARK   29  A    between atoms: _75  and  _77
REMARK   30  A    between atoms: _77  and  _78
REMARK   31  A    between atoms: _77  and  _80
REMARK   32  A    between atoms: _83  and  _85
REMARK   33  A    between atoms: _85  and  _86
REMARK   34  A    between atoms: _85  and  _88
REMARK   35  A    between atoms: _88  and  _89
REMARK   36  A    between atoms: _89  and  _90
REMARK   37  A    between atoms: _90  and  _91
REMARK   38  A    between atoms: _100  and  _102
REMARK   39  A    between atoms: _102  and  _103
REMARK   40  A    between atoms: _102  and  _105
REMARK   41  A    between atoms: _105  and  _106
REMARK   42  A    between atoms: _112  and  _114
REMARK   43  A    between atoms: _114  and  _115
REMARK   44  A    between atoms: _118  and  _120
REMARK   45  A    between atoms: _120  and  _121
REMARK   46  A    between atoms: _120  and  _123
REMARK   47  A    between atoms: _123  and  _124
REMARK   48  A    between atoms: _129  and  _131
REMARK   49  A    between atoms: _131  and  _132
REMARK   50  A    between atoms: _131  and  _134
REMARK   51  A    between atoms: _134  and  _135
REMARK   52  A    between atoms: _141  and  _143
REMARK   53  A    between atoms: _143  and  _144
REMARK   54  A    between atoms: _143  and  _146
REMARK   55  A    between atoms: _146  and  _147
REMARK   56  A    between atoms: _150  and  _152
REMARK   57  A    between atoms: _152  and  _153
REMARK   58  A    between atoms: _152  and  _155
REMARK   59  A    between atoms: _155  and  _156
REMARK   60  A    between atoms: _156  and  _157
REMARK   61  A    between atoms: _160  and  _162
REMARK   62  A    between atoms: _162  and  _163
REMARK   63  A    between atoms: _162  and  _165
REMARK   64  A    between atoms: _165  and  _166
REMARK   65  A    between atoms: _169  and  _171
REMARK   66  A    between atoms: _171  and  _172
REMARK   67  A    between atoms: _175  and  _177
REMARK   68  A    between atoms: _177  and  _178
REMARK   69  A    between atoms: _177  and  _180
REMARK   70  A    between atoms: _180  and  _181
REMARK   71  A    between atoms: _184  and  _186
REMARK   72  A    between atoms: _186  and  _187
REMARK   73  A    between atoms: _186  and  _189
REMARK   74  A    between atoms: _192  and  _194
REMARK   75  A    between atoms: _194  and  _195
REMARK   76  A    between atoms: _194  and  _197
REMARK   77  A    between atoms: _197  and  _198
REMARK   78  A    between atoms: _200  and  _202
REMARK   79  A    between atoms: _202  and  _203
REMARK   80  A    between atoms: _202  and  _205
REMARK   81  A    between atoms: _208  and  _210
REMARK   82  A    between atoms: _210  and  _211
REMARK   83  A    between atoms: _210  and  _213
REMARK   84  A    between atoms: _213  and  _214
REMARK   85  A    between atoms: _214  and  _215
REMARK   86  A    between atoms: _218  and  _220
REMARK   87  A    between atoms: _220  and  _221
REMARK   88  A    between atoms: _220  and  _223
REMARK   89  A    between atoms: _223  and  _224
REMARK   90  A    between atoms: _227  and  _229
REMARK   91  A    between atoms: _229  and  _230
REMARK   92  A    between atoms: _233  and  _235
REMARK   93  A    between atoms: _235  and  _236
REMARK   94  A    between atoms: _235  and  _238
REMARK   95  A    between atoms: _238  and  _239
REMARK   96  A    between atoms: _242  and  _244
REMARK   97  A    between atoms: _244  and  _245
REMARK   98  A    between atoms: _244  and  _247
REMARK   99  A    between atoms: _247  and  _248
REMARK  100  A    between atoms: _248  and  _249
REMARK  101  A    between atoms: _252  and  _254
REMARK  102  A    between atoms: _254  and  _255
REMARK  103  A    between atoms: _254  and  _257
REMARK  104  A    between atoms: _260  and  _262
REMARK  105  A    between atoms: _262  and  _263
REMARK  106  A    between atoms: _262  and  _265
REMARK  107  A    between atoms: _265  and  _266
REMARK  108  A    between atoms: _266  and  _267
REMARK  109  A    between atoms: _269  and  _271
REMARK  110  A    between atoms: _271  and  _272
REMARK  111  A    between atoms: _271  and  _274
REMARK  112  A    between atoms: _274  and  _275
REMARK  113  A    between atoms: _278  and  _280
REMARK  114  A    between atoms: _280  and  _281
REMARK  115  A    between atoms: _280  and  _283
REMARK  116  A    between atoms: _283  and  _284
REMARK  117  A    between atoms: _287  and  _289
REMARK  118  A    between atoms: _289  and  _290
REMARK  119  A    between atoms: _289  and  _292
REMARK  120  A    between atoms: _292  and  _293
REMARK  121  A    between atoms: _293  and  _294
REMARK  122  A    between atoms: _297  and  _299
REMARK  123  A    between atoms: _299  and  _300
REMARK  124  A    between atoms: _299  and  _302
REMARK  125  A    between atoms: _302  and  _303
REMARK  126  A    between atoms: _306  and  _308
REMARK  127  A    between atoms: _308  and  _309
REMARK  128  A    between atoms: _308  and  _311
REMARK  129  A    between atoms: _311  and  _312
REMARK  130  A    between atoms: _314  and  _316
REMARK  131  A    between atoms: _316  and  _317
REMARK  132  A    between atoms: _316  and  _319
REMARK  133  A    between atoms: _319  and  _320
REMARK  134  A    between atoms: _320  and  _321
REMARK  135  A    between atoms: _321  and  _322
REMARK  136  A    between atoms: _331  and  _333
REMARK  137  A    between atoms: _333  and  _334
REMARK  138  A    between atoms: _333  and  _336
REMARK  139  A    between atoms: _336  and  _337
REMARK  140  A    between atoms: _337  and  _338
REMARK  141  A    between atoms: _338  and  _339
REMARK  142  A    between atoms: _348  and  _350
REMARK  143  A    between atoms: _350  and  _351
REMARK  144  A    between atoms: _350  and  _353
REMARK  145  A    between atoms: _353  and  _354
REMARK  146  A    between atoms: _357  and  _359
REMARK  147  A    between atoms: _359  and  _360
REMARK  148  A    between atoms: _359  and  _362
REMARK  149  A    between atoms: _362  and  _363
REMARK  150  A    between atoms: _366  and  _368
REMARK  151  A    between atoms: _368  and  _369
REMARK  152  A    between atoms: _368  and  _371
REMARK  153  A    between atoms: _371  and  _372
REMARK  154  A    between atoms: _378  and  _380
REMARK  155  A    between atoms: _380  and  _381
REMARK  156  A    between atoms: _380  and  _383
REMARK  157  A    between atoms: _383  and  _384
REMARK  158  A    between atoms: _387  and  _389
REMARK  159  A    between atoms: _389  and  _390
REMARK  160  A    between atoms: _389  and  _392
REMARK  161  A    between atoms: _392  and  _393
REMARK  162  A    between atoms: _393  and  _394
REMARK  163  A    between atoms: _394  and  _395
REMARK  164  A    between atoms: _395  and  _396
REMARK  165  A    between atoms: _400  and  _402
REMARK  166  A    between atoms: _402  and  _403
REMARK  167  A    between atoms: _402  and  _405
REMARK  168  A    between atoms: _405  and  _406
REMARK  169  A    between atoms: _409  and  _411
REMARK  170  A    between atoms: _411  and  _412
REMARK  171  A    between atoms: _411  and  _414
REMARK  172  A    between atoms: _414  and  _415
REMARK  173  A    between atoms: _421  and  _423
REMARK  174  A    between atoms: _423  and  _424
REMARK  175  A    between atoms: _423  and  _426
REMARK  176  A    between atoms: _426  and  _427
REMARK  177  A    between atoms: _432  and  _433
REMARK  178  A    between atoms: _435  and  _437
REMARK  179  A    between atoms: _437  and  _438
REMARK  180  A    between atoms: _437  and  _440
REMARK  181  A    between atoms: _440  and  _441
REMARK  182  A    between atoms: _447  and  _449
REMARK  183  A    between atoms: _449  and  _450
REMARK  184  A    between atoms: _453  and  _455
REMARK  185  A    between atoms: _455  and  _456
REMARK  186  A    between atoms: _458  and  _460
REMARK  187  A    between atoms: _460  and  _461
REMARK  188  A    between atoms: _460  and  _463
REMARK  189  A    between atoms: _463  and  _464
REMARK  190  A    between atoms: _467  and  _469
REMARK  191  A    between atoms: _469  and  _470
REMARK  192  A    between atoms: _469  and  _472
REMARK  193  A    between atoms: _472  and  _473
REMARK  194  A    between atoms: _473  and  _474
REMARK  195  A    between atoms: _479  and  _481
REMARK  196  A    between atoms: _481  and  _482
REMARK  197  A    between atoms: _481  and  _484
REMARK  198  A    between atoms: _484  and  _485
REMARK  199  A    between atoms: _491  and  _493
REMARK  200  A    between atoms: _493  and  _494
REMARK  201  A    between atoms: _493  and  _496
REMARK  202  A    between atoms: _496  and  _497
REMARK  203  A    between atoms: _500  and  _502
REMARK  204  A    between atoms: _502  and  _503
REMARK  205  A    between atoms: _502  and  _505
REMARK  206  A    between atoms: _505  and  _506
REMARK  207  A    between atoms: _512  and  _514
REMARK  208  A    between atoms: _514  and  _515
REMARK  209  A    between atoms: _514  and  _517
REMARK  210  A    between atoms: _517  and  _518
REMARK  211  A    between atoms: _520  and  _522
REMARK  212  A    between atoms: _522  and  _523
REMARK  213  A    between atoms: _522  and  _525
REMARK  214  A    between atoms: _525  and  _526
REMARK  215  A    between atoms: _529  and  _531
REMARK  216  A    between atoms: _531  and  _532
REMARK  217  A    between atoms: _531  and  _534
REMARK  218  A    between atoms: _534  and  _535
REMARK  219  A    between atoms: _540  and  _542
REMARK  220  A    between atoms: _542  and  _543
REMARK  221  A    between atoms: _542  and  _545
REMARK  222  A    between atoms: _545  and  _546
REMARK  223  A    between atoms: _548  and  _550
REMARK  224  A    between atoms: _550  and  _551
REMARK  225  A    between atoms: _550  and  _553
REMARK  226  A    between atoms: _553  and  _554
REMARK  227  A    between atoms: _554  and  _555
REMARK  228  A    between atoms: _560  and  _562
REMARK  229  A    between atoms: _562  and  _563
REMARK  230  A    between atoms: _562  and  _565
REMARK  231  A    between atoms: _568  and  _570
REMARK  232  A    between atoms: _570  and  _571
REMARK  233  A    between atoms: _570  and  _573
REMARK  234  A    between atoms: _573  and  _574
REMARK  235  A    between atoms: _580  and  _582
REMARK  236  A    between atoms: _582  and  _583
REMARK  237  A    between atoms: _586  and  _588
REMARK  238  A    between atoms: _588  and  _589
REMARK  239  A    between atoms: _588  and  _591
REMARK  240  A    between atoms: _591  and  _592
REMARK  241  A    between atoms: _595  and  _597
REMARK  242  A    between atoms: _597  and  _598
REMARK  243  A    between atoms: _597  and  _600
REMARK  244  A    between atoms: _600  and  _601
REMARK  245  A    between atoms: _601  and  _602
REMARK  246  A    between atoms: _607  and  _609
REMARK  247  A    between atoms: _609  and  _610
REMARK  248  A    between atoms: _609  and  _612
REMARK  249  A    between atoms: _612  and  _613
REMARK  250  A    between atoms: _613  and  _614
REMARK  251  A    between atoms: _614  and  _615
REMARK  252  A    between atoms: _615  and  _616
REMARK  253  A    between atoms: _620  and  _622
REMARK  254  A    between atoms: _622  and  _623
REMARK  255  A    between atoms: _622  and  _625
REMARK  256  A    between atoms: _625  and  _626
REMARK  257  A    between atoms: _626  and  _627
REMARK  258  A    between atoms: _627  and  _628
REMARK  259  A    between atoms: _628  and  _629
REMARK  260  A    between atoms: _633  and  _635
REMARK  261  A    between atoms: _635  and  _636
REMARK  262  A    between atoms: _635  and  _638
REMARK  263  A    between atoms: _638  and  _639
REMARK  264  A    between atoms: _643  and  _644
REMARK  265  A    between atoms: _649  and  _651
REMARK  266  A    between atoms: _651  and  _652
REMARK  267  A    between atoms: _651  and  _654
REMARK  268  A    between atoms: _654  and  _655
REMARK  269  A    between atoms: _658  and  _660
REMARK  270  A    between atoms: _660  and  _661
REMARK  271  A    between atoms: _660  and  _663
REMARK  272  A    between atoms: _663  and  _664
REMARK  273  A    between atoms: _666  and  _668
REMARK  274  A    between atoms: _668  and  _669
REMARK  275  A    between atoms: _668  and  _671
REMARK  276  A    between atoms: _671  and  _672
REMARK                            x       y       z     vdW  Elec       q    Type
REMARK                         _______ _______ _______ _____ _____    ______ ____
ROOT
ATOM      1  CA  ARG A   2       4.974 -14.791  24.581  0.00  0.00    +0.137 C 
ENDROOT
BRANCH   1   3
ATOM      2  C   ASN A   1       7.143 -15.858  24.149  0.00  0.00    +0.239 C 
ATOM      3  N   ARG A   2       5.871 -15.963  24.529  0.00  0.00    -0.298 N 
ATOM      4  H   ARG A   2       5.499 -16.897  24.797  0.00  0.00    +0.150 HD
ATOM      5  O   ASN A   1       7.630 -14.801  23.741  0.00  0.00    -0.274 OA
BRANCH   2   6
ATOM      6  CA  ASN A   1       7.999 -17.134  24.204  0.00  0.00    +0.154 C 
BRANCH   6   7
ATOM      7  N   ASN A   1       7.800 -17.962  25.406  0.00  0.00    -0.238 NA
ATOM      8  H   ASN A   1       7.363 -18.900  25.303  0.00  0.00    +0.142 HD
ENDBRANCH   6   7
BRANCH   6   9
ATOM      9  CB  ASN A   1       7.754 -17.967  22.943  0.00  0.00    +0.111 C 
BRANCH   9  10
ATOM     10  CG  ASN A   1       7.869 -17.145  21.657  0.00  0.00    +0.221 C 
ATOM     11  ND2 ASN A   1       6.731 -16.645  21.176  0.00  0.00    -0.329 N 
ATOM     12 HD21 ASN A   1       5.836 -16.812  21.679  0.00  0.00    +0.145 HD
ATOM     13 HD22 ASN A   1       6.738 -16.088  20.298  0.00  0.00    +0.145 HD
ATOM     14  OD1 ASN A   1       8.967 -16.976  21.097  0.00  0.00    -0.275 OA
ENDBRANCH   9  10
ENDBRANCH   6   9
ENDBRANCH   2   6
ENDBRANCH   1   3
BRANCH   1  15
ATOM     15  C   ARG A   2       5.369 -13.786  25.682  0.00  0.00    +0.227 C 
ATOM     16  O   ARG A   2       5.135 -12.579  25.539  0.00  0.00    -0.286 OA
ENDBRANCH   1  15
BRANCH   1  17
ATOM     17  CB  ARG A   2       3.502 -15.216  24.748  0.00  0.00    +0.031 C 
BRANCH  17  18
ATOM     18  CG  ARG A   2       3.190 -15.983  26.040  0.00  0.00    +0.045 C 
BRANCH  18  19
ATOM     19  CD  ARG A   2       1.744 -15.775  26.506  0.00  0.00    +0.174 C 
BRANCH  19  20
ATOM     20  NE  ARG A   2       1.575 -16.084  27.930  0.00  0.00    -0.265 N 
ATOM     21  CZ  ARG A   2       2.009 -15.320  28.935  0.00  0.00    +0.342 C 
ATOM     22  NH2 ARG A   2       1.799 -15.703  30.196  0.00  0.00    -0.292 N 
ATOM     23 HH21 ARG A   2       2.135 -15.111  30.982  0.00  0.00    +0.255 HD
ATOM     24 HH22 ARG A   2       1.299 -16.593  30.393  0.00  0.00    +0.255 HD
ATOM     25  NH1 ARG A   2       2.652 -14.176  28.699  0.00  0.00    -0.292 N 
ATOM     26 HH11 ARG A   2       2.984 -13.592  29.493  0.00  0.00    +0.255 HD
ATOM     27 HH12 ARG A   2       2.822 -13.867  27.721  0.00  0.00    +0.255 HD
ATOM     28  HE  ARG A   2       1.080 -16.965  28.175  0.00  0.00    +0.259 HD
ENDBRANCH  19  20
ENDBRANCH  18  19
ENDBRANCH  17  18
ENDBRANCH   1  17
TORSDOF 10
REMARK  Name = ../refined-set-2016/3ipu/3ipu_pocket.pdb
REMARK  276 active torsions:
REMARK  status: ('A' for Active; 'I' for Inactive)
REMARK    1  A    between atoms: _1  and  _3
REMARK    2  A    between atoms: _3  and  _4
REMARK    3  A    between atoms: _3  and  _6
REMARK    4  A    between atoms: _6  and  _7
REMARK    5  A    between atoms: _12  and  _14
REMARK    6  A    between atoms: _14  and  _15
REMARK    7  A    between atoms: _14  and  _17
REMARK    8  A    between atoms: _17  and  _18
REMARK    9  A    between atoms: _18  and  _19
REMARK   10  A    between atoms: _19  and  _20
REMARK   11  A    between atoms: _29  and  _31
REMARK   12  A    between atoms: _31  and  _32
REMARK   13  A    between atoms: _31  and  _34
REMARK   14  A    between atoms: _34  and  _35
REMARK   15  A    between atoms: _37  and  _39
REMARK   16  A    between atoms: _39  and  _40
REMARK   17  A    between atoms: _39  and  _42
REMARK   18  A    between atoms: _42  and  _43
REMARK   19  A    between atoms: _49  and  _51
REMARK   20  A    between atoms: _51  and  _52
REMARK   21  A    between atoms: _51  and  _54
REMARK   22  A    between atoms: _54  and  _55
REMARK   23  A    between atoms: _55  and  _56
REMARK   24  A    between atoms: _56  and  _57
REMARK   25  A    between atoms: _66  and  _68
REMARK   26  A    between atoms: _68  and  _69
REMARK   27  A    between atoms: _68  and  _71
REMARK   28  A    between atoms: _71  and  _72
REMARK   29  A    between atoms: _75  and  _77
REMARK   30  A    between atoms: _77  and  _78
REMARK   31  A    between atoms: _77  and  _80
REMARK   32  A    between atoms: _83  and  _85
REMARK   33  A    between atoms: _85  and  _86
REMARK   34  A    between atoms: _85  and  _88
REMARK   35  A    between atoms: _88  and  _89
REMARK   36  A    between atoms: _89  and  _90
REMARK   37  A    between atoms: _90  and  _91
REMARK   38  A    between atoms: _100  and  _102
REMARK   39  A    between atoms: _102  and  _103
REMARK   40  A    between atoms: _102  and  _105
REMARK   41  A    between atoms: _105  and  _106
REMARK   42  A    between atoms: _112  and  _114
REMARK   43  A    between atoms: _114  and  _115
REMARK   44  A    between atoms: _118  and  _120
REMARK   45  A    between atoms: _120  and  _121
REMARK   46  A    between atoms: _120  and  _123
REMARK   47  A    between atoms: _123  and  _124
REMARK   48  A    between atoms: _129  and  _131
REMARK   49  A    between atoms: _131  and  _132
REMARK   50  A    between atoms: _131  and  _134
REMARK   51  A    between atoms: _134  and  _135
REMARK   52  A    between atoms: _141  and  _143
REMARK   53  A    between atoms: _143  and  _144
REMARK   54  A    between atoms: _143  and  _146
REMARK   55  A    between atoms: _146  and  _147
REMARK   56  A    between atoms: _150  and  _152
REMARK   57  A    between atoms: _152  and  _153
REMARK   58  A    between atoms: _152  and  _155
REMARK   59  A    between atoms: _155  and  _156
REMARK   60  A    between atoms: _156  and  _157
REMARK   61  A    between atoms: _160  and  _162
REMARK   62  A    between atoms: _162  and  _163
REMARK   63  A    between atoms: _162  and  _165
REMARK   64  A    between atoms: _165  and  _166
REMARK   65  A    between atoms: _169  and  _171
REMARK   66  A    between atoms: _171  and  _172
REMARK   67  A    between atoms: _175  and  _177
REMARK   68  A    between atoms: _177  and  _178
REMARK   69  A    between atoms: _177  and  _180
REMARK   70  A    between atoms: _180  and  _181
REMARK   71  A    between atoms: _184  and  _186
REMARK   72  A    between atoms: _186  and  _187
REMARK   73  A    between atoms: _186  and  _189
REMARK   74  A    between atoms: _192  and  _194
REMARK   75  A    between atoms: _194  and  _195
REMARK   76  A    between atoms: _194  and  _197
REMARK   77  A    between atoms: _197  and  _198
REMARK   78  A    between atoms: _200  and  _202
REMARK   79  A    between atoms: _202  and  _203
REMARK   80  A    between atoms: _202  and  _205
REMARK   81  A    between atoms: _208  and  _210
REMARK   82  A    between atoms: _210  and  _211
REMARK   83  A    between atoms: _210  and  _213
REMARK   84  A    between atoms: _213  and  _214
REMARK   85  A    between atoms: _214  and  _215
REMARK   86  A    between atoms: _218  and  _220
REMARK   87  A    between atoms: _220  and  _221
REMARK   88  A    between atoms: _220  and  _223
REMARK   89  A    between atoms: _223  and  _224
REMARK   90  A    between atoms: _227  and  _229
REMARK   91  A    between atoms: _229  and  _230
REMARK   92  A    between atoms: _233  and  _235
REMARK   93  A    between atoms: _235  and  _236
REMARK   94  A    between atoms: _235  and  _238
REMARK   95  A    between atoms: _238  and  _239
REMARK   96  A    between atoms: _242  and  _244
REMARK   97  A    between atoms: _244  and  _245
REMARK   98  A    between atoms: _244  and  _247
REMARK   99  A    between atoms: _247  and  _248
REMARK  100  A    between atoms: _248  and  _249
REMARK  101  A    between atoms: _252  and  _254
REMARK  102  A    between atoms: _254  and  _255
REMARK  103  A    between atoms: _254  and  _257
REMARK  104  A    between atoms: _260  and  _262
REMARK  105  A    between atoms: _262  and  _263
REMARK  106  A    between atoms: _262  and  _265
REMARK  107  A    between atoms: _265  and  _266
REMARK  108  A    between atoms: _266  and  _267
REMARK  109  A    between atoms: _269  and  _271
REMARK  110  A    between atoms: _271  and  _272
REMARK  111  A    between atoms: _271  and  _274
REMARK  112  A    between atoms: _274  and  _275
REMARK  113  A    between atoms: _278  and  _280
REMARK  114  A    between atoms: _280  and  _281
REMARK  115  A    between atoms: _280  and  _283
REMARK  116  A    between atoms: _283  and  _284
REMARK  117  A    between atoms: _287  and  _289
REMARK  118  A    between atoms: _289  and  _290
REMARK  119  A    between atoms: _289  and  _292
REMARK  120  A    between atoms: _292  and  _293
REMARK  121  A    between atoms: _293  and  _294
REMARK  122  A    between atoms: _297  and  _299
REMARK  123  A    between atoms: _299  and  _300
REMARK  124  A    between atoms: _299  and  _302
REMARK  125  A    between atoms: _302  and  _303
REMARK  126  A    between atoms: _306  and  _308
REMARK  127  A    between atoms: _308  and  _309
REMARK  128  A    between atoms: _308  and  _311
REMARK  129  A    between atoms: _311  and  _312
REMARK  130  A    between atoms: _314  and  _316
REMARK  131  A    between atoms: _316  and  _317
REMARK  132  A    between atoms: _316  and  _319
REMARK  133  A    between atoms: _319  and  _320
REMARK  134  A    between atoms: _320  and  _321
REMARK  135  A    between atoms: _321  and  _322
REMARK  136  A    between atoms: _331  and  _333
REMARK  137  A    between atoms: _333  and  _334
REMARK  138  A    between atoms: _333  and  _336
REMARK  139  A    between atoms: _336  and  _337
REMARK  140  A    between atoms: _337  and  _338
REMARK  141  A    between atoms: _338  and  _339
REMARK  142  A    between atoms: _348  and  _350
REMARK  143  A    between atoms: _350  and  _351
REMARK  144  A    between atoms: _350  and  _353
REMARK  145  A    between atoms: _353  and  _354
REMARK  146  A    between atoms: _357  and  _359
REMARK  147  A    between atoms: _359  and  _360
REMARK  148  A    between atoms: _359  and  _362
REMARK  149  A    between atoms: _362  and  _363
REMARK  150  A    between atoms: _366  and  _368
REMARK  151  A    between atoms: _368  and  _369
REMARK  152  A    between atoms: _368  and  _371
REMARK  153  A    between atoms: _371  and  _372
REMARK  154  A    between atoms: _378  and  _380
REMARK  155  A    between atoms: _380  and  _381
REMARK  156  A    between atoms: _380  and  _383
REMARK  157  A    between atoms: _383  and  _384
REMARK  158  A    between atoms: _387  and  _389
REMARK  159  A    between atoms: _389  and  _390
REMARK  160  A    between atoms: _389  and  _392
REMARK  161  A    between atoms: _392  and  _393
REMARK  162  A    between atoms: _393  and  _394
REMARK  163  A    between atoms: _394  and  _395
REMARK  164  A    between atoms: _395  and  _396
REMARK  165  A    between atoms: _400  and  _402
REMARK  166  A    between atoms: _402  and  _403
REMARK  167  A    between atoms: _402  and  _405
REMARK  168  A    between atoms: _405  and  _406
REMARK  169  A    between atoms: _409  and  _411
REMARK  170  A    between atoms: _411  and  _412
REMARK  171  A    between atoms: _411  and  _414
REMARK  172  A    between atoms: _414  and  _415
REMARK  173  A    between atoms: _421  and  _423
REMARK  174  A    between atoms: _423  and  _424
REMARK  175  A    between atoms: _423  and  _426
REMARK  176  A    between atoms: _426  and  _427
REMARK  177  A    between atoms: _432  and  _433
REMARK  178  A    between atoms: _435  and  _437
REMARK  179  A    between atoms: _437  and  _438
REMARK  180  A    between atoms: _437  and  _440
REMARK  181  A    between atoms: _440  and  _441
REMARK  182  A    between atoms: _447  and  _449
REMARK  183  A    between atoms: _449  and  _450
REMARK  184  A    between atoms: _453  and  _455
REMARK  185  A    between atoms: _455  and  _456
REMARK  186  A    between atoms: _458  and  _460
REMARK  187  A    between atoms: _460  and  _461
REMARK  188  A    between atoms: _460  and  _463
REMARK  189  A    between atoms: _463  and  _464
REMARK  190  A    between atoms: _467  and  _469
REMARK  191  A    between atoms: _469  and  _470
REMARK  192  A    between atoms: _469  and  _472
REMARK  193  A    between atoms: _472  and  _473
REMARK  194  A    between atoms: _473  and  _474
REMARK  195  A    between atoms: _479  and  _481
REMARK  196  A    between atoms: _481  and  _482
REMARK  197  A    between atoms: _481  and  _484
REMARK  198  A    between atoms: _484  and  _485
REMARK  199  A    between atoms: _491  and  _493
REMARK  200  A    between atoms: _493  and  _494
REMARK  201  A    between atoms: _493  and  _496
REMARK  202  A    between atoms: _496  and  _497
REMARK  203  A    between atoms: _500  and  _502
REMARK  204  A    between atoms: _502  and  _503
REMARK  205  A    between atoms: _502  and  _505
REMARK  206  A    between atoms: _505  and  _506
REMARK  207  A    between atoms: _512  and  _514
REMARK  208  A    between atoms: _514  and  _515
REMARK  209  A    between atoms: _514  and  _517
REMARK  210  A    between atoms: _517  and  _518
REMARK  211  A    between atoms: _520  and  _522
REMARK  212  A    between atoms: _522  and  _523
REMARK  213  A    between atoms: _522  and  _525
REMARK  214  A    between atoms: _525  and  _526
REMARK  215  A    between atoms: _529  and  _531
REMARK  216  A    between atoms: _531  and  _532
REMARK  217  A    between atoms: _531  and  _534
REMARK  218  A    between atoms: _534  and  _535
REMARK  219  A    between atoms: _540  and  _542
REMARK  220  A    between atoms: _542  and  _543
REMARK  221  A    between atoms: _542  and  _545
REMARK  222  A    between atoms: _545  and  _546
REMARK  223  A    between atoms: _548  and  _550
REMARK  224  A    between atoms: _550  and  _551
REMARK  225  A    between atoms: _550  and  _553
REMARK  226  A    between atoms: _553  and  _554
REMARK  227  A    between atoms: _554  and  _555
REMARK  228  A    between atoms: _560  and  _562
REMARK  229  A    between atoms: _562  and  _563
REMARK  230  A    between atoms: _562  and  _565
REMARK  231  A    between atoms: _568  and  _570
REMARK  232  A    between atoms: _570  and  _571
REMARK  233  A    between atoms: _570  and  _573
REMARK  234  A    between atoms: _573  and  _574
REMARK  235  A    between atoms: _580  and  _582
REMARK  236  A    between atoms: _582  and  _583
REMARK  237  A    between atoms: _586  and  _588
REMARK  238  A    between atoms: _588  and  _589
REMARK  239  A    between atoms: _588  and  _591
REMARK  240  A    between atoms: _591  and  _592
REMARK  241  A    between atoms: _595  and  _597
REMARK  242  A    between atoms: _597  and  _598
REMARK  243  A    between atoms: _597  and  _600
REMARK  244  A    between atoms: _600  and  _601
REMARK  245  A    between atoms: _601  and  _602
REMARK  246  A    between atoms: _607  and  _609
REMARK  247  A    between atoms: _609  and  _610
REMARK  248  A    between atoms: _609  and  _612
REMARK  249  A    between atoms: _612  and  _613
REMARK  250  A    between atoms: _613  and  _614
REMARK  251  A    between atoms: _614  and  _615
REMARK  252  A    between atoms: _615  and  _616
REMARK  253  A    between atoms: _620  and  _622
REMARK  254  A    between atoms: _622  and  _623
REMARK  255  A    between atoms: _622  and  _625
REMARK  256  A    between atoms: _625  and  _626
REMARK  257  A    between atoms: _626  and  _627
REMARK  258  A    between atoms: _627  and  _628
REMARK  259  A    between atoms: _628  and  _629
REMARK  260  A    between atoms: _633  and  _635
REMARK  261  A    between atoms: _635  and  _636
REMARK  262  A    between atoms: _635  and  _638
REMARK  263  A    between atoms: _638  and  _639
REMARK  264  A    between atoms: _643  and  _644
REMARK  265  A    between atoms: _649  and  _651
REMARK  266  A    between atoms: _651  and  _652
REMARK  267  A    between atoms: _651  and  _654
REMARK  268  A    between atoms: _654  and  _655
REMARK  269  A    between atoms: _658  and  _660
REMARK  270  A    between atoms: _660  and  _661
REMARK  271  A    between atoms: _660  and  _663
REMARK  272  A    between atoms: _663  and  _664
REMARK  273  A    between atoms: _666  and  _668
REMARK  274  A    between atoms: _668  and  _669
REMARK  275  A    between atoms: _668  and  _671
REMARK  276  A    between atoms: _671  and  _672
REMARK                            x       y       z     vdW  Elec       q    Type
REMARK                         _______ _______ _______ _____ _____    ______ ____
ROOT
ATOM      1  C   SER A   1       9.185 -11.517  24.526  0.00  0.00    +0.241 C 
ATOM      2  N   PHE A   2       7.898 -11.408  24.188  0.00  0.00    -0.298 N 
ATOM      3  H   PHE A   2       7.171 -11.793  24.824  0.00  0.00    +0.150 HD
ATOM      4  O   SER A   1      10.094 -11.033  23.845  0.00  0.00    -0.274 OA
ENDROOT
BRANCH   1   5
ATOM      5  CA  SER A   1       9.502 -12.251  25.836  0.00  0.00    +0.174 C 
BRANCH   5   6
ATOM      6  N   SER A   1       8.363 -13.000  26.362  0.00  0.00    -0.236 NA
ATOM      7  H   SER A   1       8.111 -13.909  25.923  0.00  0.00    +0.142 HD
ENDBRANCH   5   6
BRANCH   5   8
ATOM      8  CB  SER A   1      10.693 -13.198  25.659  0.00  0.00    +0.163 C 
BRANCH   8   9
ATOM      9  OG  SER A   1      11.162 -13.642  26.926  0.00  0.00    -0.380 OA
ATOM     10  H   SER A   1      11.931 -14.252  26.797  0.00  0.00    +0.211 HD
ENDBRANCH   8   9
ENDBRANCH   5   8
ENDBRANCH   1   5
BRANCH   2  11
ATOM     11  CA  PHE A   2       7.487 -10.758  22.942  0.00  0.00    +0.141 C 
BRANCH  11  12
ATOM     12  C   PHE A   2       7.872  -9.274  22.899  0.00  0.00    +0.227 C 
ATOM     13  O   PHE A   2       8.368  -8.789  21.884  0.00  0.00    -0.286 OA
ENDBRANCH  11  12
BRANCH  11  14
ATOM     14  CB  PHE A   2       5.979 -10.907  22.724  0.00  0.00    +0.054 C 
BRANCH  14  15
ATOM     15  CG  PHE A   2       5.487 -10.299  21.433  0.00  0.00    -0.020 A 
ATOM     16  CD2 PHE A   2       5.215  -8.936  21.347  0.00  0.00    -0.004 A 
ATOM     17  CE2 PHE A   2       4.761  -8.371  20.155  0.00  0.00    -0.000 A 
ATOM     18  CZ  PHE A   2       4.570  -9.175  19.030  0.00  0.00    -0.000 A 
ATOM     19  CE1 PHE A   2       4.836 -10.537  19.105  0.00  0.00    -0.000 A 
ATOM     20  CD1 PHE A   2       5.296 -11.091  20.304  0.00  0.00    -0.004 A 
ENDBRANCH  14  15
ENDBRANCH  11  14
ENDBRANCH   2  11
TORSDOF 8
REMARK  Name = ../refined-set-2016/3ipu/3ipu_pocket.pdb
REMARK  276 active torsions:
REMARK  status: ('A' for Active; 'I' for Inactive)
REMARK    1  A    between atoms: _1  and  _3
REMARK    2  A    between atoms: _3  and  _4
REMARK    3  A    between atoms: _3  and  _6
REMARK    4  A    between atoms: _6  and  _7
REMARK    5  A    between atoms: _12  and  _14
REMARK    6  A    between atoms: _14  and  _15
REMARK    7  A    between atoms: _14  and  _17
REMARK    8  A    between atoms: _17  and  _18
REMARK    9  A    between atoms: _18  and  _19
REMARK   10  A    between atoms: _19  and  _20
REMARK   11  A    between atoms: _29  and  _31
REMARK   12  A    between atoms: _31  and  _32
REMARK   13  A    between atoms: _31  and  _34
REMARK   14  A    between atoms: _34  and  _35
REMARK   15  A    between atoms: _37  and  _39
REMARK   16  A    between atoms: _39  and  _40
REMARK   17  A    between atoms: _39  and  _42
REMARK   18  A    between atoms: _42  and  _43
REMARK   19  A    between atoms: _49  and  _51
REMARK   20  A    between atoms: _51  and  _52
REMARK   21  A    between atoms: _51  and  _54
REMARK   22  A    between atoms: _54  and  _55
REMARK   23  A    between atoms: _55  and  _56
REMARK   24  A    between atoms: _56  and  _57
REMARK   25  A    between atoms: _66  and  _68
REMARK   26  A    between atoms: _68  and  _69
REMARK   27  A    between atoms: _68  and  _71
REMARK   28  A    between atoms: _71  and  _72
REMARK   29  A    between atoms: _75  and  _77
REMARK   30  A    between atoms: _77  and  _78
REMARK   31  A    between atoms: _77  and  _80
REMARK   32  A    between atoms: _83  and  _85
REMARK   33  A    between atoms: _85  and  _86
REMARK   34  A    between atoms: _85  and  _88
REMARK   35  A    between atoms: _88  and  _89
REMARK   36  A    between atoms: _89  and  _90
REMARK   37  A    between atoms: _90  and  _91
REMARK   38  A    between atoms: _100  and  _102
REMARK   39  A    between atoms: _102  and  _103
REMARK   40  A    between atoms: _102  and  _105
REMARK   41  A    between atoms: _105  and  _106
REMARK   42  A    between atoms: _112  and  _114
REMARK   43  A    between atoms: _114  and  _115
REMARK   44  A    between atoms: _118  and  _120
REMARK   45  A    between atoms: _120  and  _121
REMARK   46  A    between atoms: _120  and  _123
REMARK   47  A    between atoms: _123  and  _124
REMARK   48  A    between atoms: _129  and  _131
REMARK   49  A    between atoms: _131  and  _132
REMARK   50  A    between atoms: _131  and  _134
REMARK   51  A    between atoms: _134  and  _135
REMARK   52  A    between atoms: _141  and  _143
REMARK   53  A    between atoms: _143  and  _144
REMARK   54  A    between atoms: _143  and  _146
REMARK   55  A    between atoms: _146  and  _147
REMARK   56  A    between atoms: _150  and  _152
REMARK   57  A    between atoms: _152  and  _153
REMARK   58  A    between atoms: _152  and  _155
REMARK   59  A    between atoms: _155  and  _156
REMARK   60  A    between atoms: _156  and  _157
REMARK   61  A    between atoms: _160  and  _162
REMARK   62  A    between atoms: _162  and  _163
REMARK   63  A    between atoms: _162  and  _165
REMARK   64  A    between atoms: _165  and  _166
REMARK   65  A    between atoms: _169  and  _171
REMARK   66  A    between atoms: _171  and  _172
REMARK   67  A    between atoms: _175  and  _177
REMARK   68  A    between atoms: _177  and  _178
REMARK   69  A    between atoms: _177  and  _180
REMARK   70  A    between atoms: _180  and  _181
REMARK   71  A    between atoms: _184  and  _186
REMARK   72  A    between atoms: _186  and  _187
REMARK   73  A    between atoms: _186  and  _189
REMARK   74  A    between atoms: _192  and  _194
REMARK   75  A    between atoms: _194  and  _195
REMARK   76  A    between atoms: _194  and  _197
REMARK   77  A    between atoms: _197  and  _198
REMARK   78  A    between atoms: _200  and  _202
REMARK   79  A    between atoms: _202  and  _203
REMARK   80  A    between atoms: _202  and  _205
REMARK   81  A    between atoms: _208  and  _210
REMARK   82  A    between atoms: _210  and  _211
REMARK   83  A    between atoms: _210  and  _213
REMARK   84  A    between atoms: _213  and  _214
REMARK   85  A    between atoms: _214  and  _215
REMARK   86  A    between atoms: _218  and  _220
REMARK   87  A    between atoms: _220  and  _221
REMARK   88  A    between atoms: _220  and  _223
REMARK   89  A    between atoms: _223  and  _224
REMARK   90  A    between atoms: _227  and  _229
REMARK   91  A    between atoms: _229  and  _230
REMARK   92  A    between atoms: _233  and  _235
REMARK   93  A    between atoms: _235  and  _236
REMARK   94  A    between atoms: _235  and  _238
REMARK   95  A    between atoms: _238  and  _239
REMARK   96  A    between atoms: _242  and  _244
REMARK   97  A    between atoms: _244  and  _245
REMARK   98  A    between atoms: _244  and  _247
REMARK   99  A    between atoms: _247  and  _248
REMARK  100  A    between atoms: _248  and  _249
REMARK  101  A    between atoms: _252  and  _254
REMARK  102  A    between atoms: _254  and  _255
REMARK  103  A    between atoms: _254  and  _257
REMARK  104  A    between atoms: _260  and  _262
REMARK  105  A    between atoms: _262  and  _263
REMARK  106  A    between atoms: _262  and  _265
REMARK  107  A    between atoms: _265  and  _266
REMARK  108  A    between atoms: _266  and  _267
REMARK  109  A    between atoms: _269  and  _271
REMARK  110  A    between atoms: _271  and  _272
REMARK  111  A    between atoms: _271  and  _274
REMARK  112  A    between atoms: _274  and  _275
REMARK  113  A    between atoms: _278  and  _280
REMARK  114  A    between atoms: _280  and  _281
REMARK  115  A    between atoms: _280  and  _283
REMARK  116  A    between atoms: _283  and  _284
REMARK  117  A    between atoms: _287  and  _289
REMARK  118  A    between atoms: _289  and  _290
REMARK  119  A    between atoms: _289  and  _292
REMARK  120  A    between atoms: _292  and  _293
REMARK  121  A    between atoms: _293  and  _294
REMARK  122  A    between atoms: _297  and  _299
REMARK  123  A    between atoms: _299  and  _300
REMARK  124  A    between atoms: _299  and  _302
REMARK  125  A    between atoms: _302  and  _303
REMARK  126  A    between atoms: _306  and  _308
REMARK  127  A    between atoms: _308  and  _309
REMARK  128  A    between atoms: _308  and  _311
REMARK  129  A    between atoms: _311  and  _312
REMARK  130  A    between atoms: _314  and  _316
REMARK  131  A    between atoms: _316  and  _317
REMARK  132  A    between atoms: _316  and  _319
REMARK  133  A    between atoms: _319  and  _320
REMARK  134  A    between atoms: _320  and  _321
REMARK  135  A    between atoms: _321  and  _322
REMARK  136  A    between atoms: _331  and  _333
REMARK  137  A    between atoms: _333  and  _334
REMARK  138  A    between atoms: _333  and  _336
REMARK  139  A    between atoms: _336  and  _337
REMARK  140  A    between atoms: _337  and  _338
REMARK  141  A    between atoms: _338  and  _339
REMARK  142  A    between atoms: _348  and  _350
REMARK  143  A    between atoms: _350  and  _351
REMARK  144  A    between atoms: _350  and  _353
REMARK  145  A    between atoms: _353  and  _354
REMARK  146  A    between atoms: _357  and  _359
REMARK  147  A    between atoms: _359  and  _360
REMARK  148  A    between atoms: _359  and  _362
REMARK  149  A    between atoms: _362  and  _363
REMARK  150  A    between atoms: _366  and  _368
REMARK  151  A    between atoms: _368  and  _369
REMARK  152  A    between atoms: _368  and  _371
REMARK  153  A    between atoms: _371  and  _372
REMARK  154  A    between atoms: _378  and  _380
REMARK  155  A    between atoms: _380  and  _381
REMARK  156  A    between atoms: _380  and  _383
REMARK  157  A    between atoms: _383  and  _384
REMARK  158  A    between atoms: _387  and  _389
REMARK  159  A    between atoms: _389  and  _390
REMARK  160  A    between atoms: _389  and  _392
REMARK  161  A    between atoms: _392  and  _393
REMARK  162  A    between atoms: _393  and  _394
REMARK  163  A    between atoms: _394  and  _395
REMARK  164  A    between atoms: _395  and  _396
REMARK  165  A    between atoms: _400  and  _402
REMARK  166  A    between atoms: _402  and  _403
REMARK  167  A    between atoms: _402  and  _405
REMARK  168  A    between atoms: _405  and  _406
REMARK  169  A    between atoms: _409  and  _411
REMARK  170  A    between atoms: _411  and  _412
REMARK  171  A    between atoms: _411  and  _414
REMARK  172  A    between atoms: _414  and  _415
REMARK  173  A    between atoms: _421  and  _423
REMARK  174  A    between atoms: _423  and  _424
REMARK  175  A    between atoms: _423  and  _426
REMARK  176  A    between atoms: _426  and  _427
REMARK  177  A    between atoms: _432  and  _433
REMARK  178  A    between atoms: _435  and  _437
REMARK  179  A    between atoms: _437  and  _438
REMARK  180  A    between atoms: _437  and  _440
REMARK  181  A    between atoms: _440  and  _441
REMARK  182  A    between atoms: _447  and  _449
REMARK  183  A    between atoms: _449  and  _450
REMARK  184  A    between atoms: _453  and  _455
REMARK  185  A    between atoms: _455  and  _456
REMARK  186  A    between atoms: _458  and  _460
REMARK  187  A    between atoms: _460  and  _461
REMARK  188  A    between atoms: _460  and  _463
REMARK  189  A    between atoms: _463  and  _464
REMARK  190  A    between atoms: _467  and  _469
REMARK  191  A    between atoms: _469  and  _470
REMARK  192  A    between atoms: _469  and  _472
REMARK  193  A    between atoms: _472  and  _473
REMARK  194  A    between atoms: _473  and  _474
REMARK  195  A    between atoms: _479  and  _481
REMARK  196  A    between atoms: _481  and  _482
REMARK  197  A    between atoms: _481  and  _484
REMARK  198  A    between atoms: _484  and  _485
REMARK  199  A    between atoms: _491  and  _493
REMARK  200  A    between atoms: _493  and  _494
REMARK  201  A    between atoms: _493  and  _496
REMARK  202  A    between atoms: _496  and  _497
REMARK  203  A    between atoms: _500  and  _502
REMARK  204  A    between atoms: _502  and  _503
REMARK  205  A    between atoms: _502  and  _505
REMARK  206  A    between atoms: _505  and  _506
REMARK  207  A    between atoms: _512  and  _514
REMARK  208  A    between atoms: _514  and  _515
REMARK  209  A    between atoms: _514  and  _517
REMARK  210  A    between atoms: _517  and  _518
REMARK  211  A    between atoms: _520  and  _522
REMARK  212  A    between atoms: _522  and  _523
REMARK  213  A    between atoms: _522  and  _525
REMARK  214  A    between atoms: _525  and  _526
REMARK  215  A    between atoms: _529  and  _531
REMARK  216  A    between atoms: _531  and  _532
REMARK  217  A    between atoms: _531  and  _534
REMARK  218  A    between atoms: _534  and  _535
REMARK  219  A    between atoms: _540  and  _542
REMARK  220  A    between atoms: _542  and  _543
REMARK  221  A    between atoms: _542  and  _545
REMARK  222  A    between atoms: _545  and  _546
REMARK  223  A    between atoms: _548  and  _550
REMARK  224  A    between atoms: _550  and  _551
REMARK  225  A    between atoms: _550  and  _553
REMARK  226  A    between atoms: _553  and  _554
REMARK  227  A    between atoms: _554  and  _555
REMARK  228  A    between atoms: _560  and  _562
REMARK  229  A    between atoms: _562  and  _563
REMARK  230  A    between atoms: _562  and  _565
REMARK  231  A    between atoms: _568  and  _570
REMARK  232  A    between atoms: _570  and  _571
REMARK  233  A    between atoms: _570  and  _573
REMARK  234  A    between atoms: _573  and  _574
REMARK  235  A    between atoms: _580  and  _582
REMARK  236  A    between atoms: _582  and  _583
REMARK  237  A    between atoms: _586  and  _588
REMARK  238  A    between atoms: _588  and  _589
REMARK  239  A    between atoms: _588  and  _591
REMARK  240  A    between atoms: _591  and  _592
REMARK  241  A    between atoms: _595  and  _597
REMARK  242  A    between atoms: _597  and  _598
REMARK  243  A    between atoms: _597  and  _600
REMARK  244  A    between atoms: _600  and  _601
REMARK  245  A    between atoms: _601  and  _602
REMARK  246  A    between atoms: _607  and  _609
REMARK  247  A    between atoms: _609  and  _610
REMARK  248  A    between atoms: _609  and  _612
REMARK  249  A    between atoms: _612  and  _613
REMARK  250  A    between atoms: _613  and  _614
REMARK  251  A    between atoms: _614  and  _615
REMARK  252  A    between atoms: _615  and  _616
REMARK  253  A    between atoms: _620  and  _622
REMARK  254  A    between atoms: _622  and  _623
REMARK  255  A    between atoms: _622  and  _625
REMARK  256  A    between atoms: _625  and  _626
REMARK  257  A    between atoms: _626  and  _627
REMARK  258  A    between atoms: _627  and  _628
REMARK  259  A    between atoms: _628  and  _629
REMARK  260  A    between atoms: _633  and  _635
REMARK  261  A    between atoms: _635  and  _636
REMARK  262  A    between atoms: _635  and  _638
REMARK  263  A    between atoms: _638  and  _639
REMARK  264  A    between atoms: _643  and  _644
REMARK  265  A    between atoms: _649  and  _651
REMARK  266  A    between atoms: _651  and  _652
REMARK  267  A    between atoms: _651  and  _654
REMARK  268  A    between atoms: _654  and  _655
REMARK  269  A    between atoms: _658  and  _660
REMARK  270  A    between atoms: _660  and  _661
REMARK  271  A    between atoms: _660  and  _663
REMARK  272  A    between atoms: _663  and  _664
REMARK  273  A    between atoms: _666  and  _668
REMARK  274  A    between atoms: _668  and  _669
REMARK  275  A    between atoms: _668  and  _671
REMARK  276  A    between atoms: _671  and  _672
REMARK                            x       y       z     vdW  Elec       q    Type
REMARK                         _______ _______ _______ _____ _____    ______ ____
ROOT
ATOM      1  CA  ARG A   1      12.193  -9.001  21.570  0.00  0.00    +0.145 C 
ENDROOT
BRANCH   1   2
ATOM      2  C   ARG A   1      11.827  -7.927  20.537  0.00  0.00    +0.238 C 
ATOM      3  N   LEU A   2      10.803  -7.135  20.853  0.00  0.00    -0.298 N 
ATOM      4  H   LEU A   2      10.282  -7.327  21.733  0.00  0.00    +0.150 HD
ATOM      5  O   ARG A   1      12.465  -7.826  19.478  0.00  0.00    -0.274 OA
BRANCH   3   6
ATOM      6  CA  LEU A   2      10.375  -6.007  20.022  0.00  0.00    +0.137 C 
BRANCH   6   7
ATOM      7  C   LEU A   2      11.375  -4.836  20.098  0.00  0.00    +0.227 C 
ATOM      8  O   LEU A   2      11.518  -4.086  19.132  0.00  0.00    -0.286 OA
ENDBRANCH   6   7
BRANCH   6   9
ATOM      9  CB  LEU A   2       8.964  -5.543  20.444  0.00  0.00    +0.028 C 
BRANCH   9  10
ATOM     10  CG  LEU A   2       7.885  -5.294  19.379  0.00  0.00    +0.002 C 
ATOM     11  CD2 LEU A   2       6.532  -5.034  20.047  0.00  0.00    +0.000 C 
ATOM     12  CD1 LEU A   2       7.759  -6.455  18.387  0.00  0.00    +0.000 C 
ENDBRANCH   9  10
ENDBRANCH   6   9
ENDBRANCH   3   6
ENDBRANCH   1   2
BRANCH   1  13
ATOM     13  N   ARG A   1      11.722  -8.665  22.919  0.00  0.00    -0.238 NA
ATOM     14  H   ARG A   1      10.880  -9.155  23.285  0.00  0.00    +0.142 HD
ENDBRANCH   1  13
BRANCH   1  15
ATOM     15  CB  ARG A   1      11.594 -10.346  21.158  0.00  0.00    +0.030 C 
BRANCH  15  16
ATOM     16  CG  ARG A   1      12.148 -10.963  19.892  0.00  0.00    +0.045 C 
BRANCH  16  17
ATOM     17  CD  ARG A   1      11.860 -12.456  19.879  0.00  0.00    +0.174 C 
BRANCH  17  18
ATOM     18  NE  ARG A   1      12.812 -13.204  20.701  0.00  0.00    -0.265 N 
ATOM     19  CZ  ARG A   1      12.585 -14.396  21.251  0.00  0.00    +0.342 C 
ATOM     20  NH2 ARG A   1      13.543 -14.974  21.965  0.00  0.00    -0.292 N 
ATOM     21 HH21 ARG A   1      13.378 -15.904  22.400  0.00  0.00    +0.255 HD
ATOM     22 HH22 ARG A   1      14.458 -14.496  22.090  0.00  0.00    +0.255 HD
ATOM     23  NH1 ARG A   1      11.414 -15.011  21.113  0.00  0.00    -0.292 N 
ATOM     24 HH11 ARG A   1      11.260 -15.941  21.552  0.00  0.00    +0.255 HD
ATOM     25 HH12 ARG A   1      10.652 -14.562  20.566  0.00  0.00    +0.255 HD
ATOM     26  HE  ARG A   1      13.742 -12.770  20.870  0.00  0.00    +0.259 HD
ENDBRANCH  17  18
ENDBRANCH  16  17
ENDBRANCH  15  16
ENDBRANCH   1  15
TORSDOF 10
REMARK  Name = ../refined-set-2016/3ipu/3ipu_pocket.pdb
REMARK  276 active torsions:
REMARK  status: ('A' for Active; 'I' for Inactive)
REMARK    1  A    between atoms: _1  and  _3
REMARK    2  A    between atoms: _3  and  _4
REMARK    3  A    between atoms: _3  and  _6
REMARK    4  A    between atoms: _6  and  _7
REMARK    5  A    between atoms: _12  and  _14
REMARK    6  A    between atoms: _14  and  _15
REMARK    7  A    between atoms: _14  and  _17
REMARK    8  A    between atoms: _17  and  _18
REMARK    9  A    between atoms: _18  and  _19
REMARK   10  A    between atoms: _19  and  _20
REMARK   11  A    between atoms: _29  and  _31
REMARK   12  A    between atoms: _31  and  _32
REMARK   13  A    between atoms: _31  and  _34
REMARK   14  A    between atoms: _34  and  _35
REMARK   15  A    between atoms: _37  and  _39
REMARK   16  A    between atoms: _39  and  _40
REMARK   17  A    between atoms: _39  and  _42
REMARK   18  A    between atoms: _42  and  _43
REMARK   19  A    between atoms: _49  and  _51
REMARK   20  A    between atoms: _51  and  _52
REMARK   21  A    between atoms: _51  and  _54
REMARK   22  A    between atoms: _54  and  _55
REMARK   23  A    between atoms: _55  and  _56
REMARK   24  A    between atoms: _56  and  _57
REMARK   25  A    between atoms: _66  and  _68
REMARK   26  A    between atoms: _68  and  _69
REMARK   27  A    between atoms: _68  and  _71
REMARK   28  A    between atoms: _71  and  _72
REMARK   29  A    between atoms: _75  and  _77
REMARK   30  A    between atoms: _77  and  _78
REMARK   31  A    between atoms: _77  and  _80
REMARK   32  A    between atoms: _83  and  _85
REMARK   33  A    between atoms: _85  and  _86
REMARK   34  A    between atoms: _85  and  _88
REMARK   35  A    between atoms: _88  and  _89
REMARK   36  A    between atoms: _89  and  _90
REMARK   37  A    between atoms: _90  and  _91
REMARK   38  A    between atoms: _100  and  _102
REMARK   39  A    between atoms: _102  and  _103
REMARK   40  A    between atoms: _102  and  _105
REMARK   41  A    between atoms: _105  and  _106
REMARK   42  A    between atoms: _112  and  _114
REMARK   43  A    between atoms: _114  and  _115
REMARK   44  A    between atoms: _118  and  _120
REMARK   45  A    between atoms: _120  and  _121
REMARK   46  A    between atoms: _120  and  _123
REMARK   47  A    between atoms: _123  and  _124
REMARK   48  A    between atoms: _129  and  _131
REMARK   49  A    between atoms: _131  and  _132
REMARK   50  A    between atoms: _131  and  _134
REMARK   51  A    between atoms: _134  and  _135
REMARK   52  A    between atoms: _141  and  _143
REMARK   53  A    between atoms: _143  and  _144
REMARK   54  A    between atoms: _143  and  _146
REMARK   55  A    between atoms: _146  and  _147
REMARK   56  A    between atoms: _150  and  _152
REMARK   57  A    between atoms: _152  and  _153
REMARK   58  A    between atoms: _152  and  _155
REMARK   59  A    between atoms: _155  and  _156
REMARK   60  A    between atoms: _156  and  _157
REMARK   61  A    between atoms: _160  and  _162
REMARK   62  A    between atoms: _162  and  _163
REMARK   63  A    between atoms: _162  and  _165
REMARK   64  A    between atoms: _165  and  _166
REMARK   65  A    between atoms: _169  and  _171
REMARK   66  A    between atoms: _171  and  _172
REMARK   67  A    between atoms: _175  and  _177
REMARK   68  A    between atoms: _177  and  _178
REMARK   69  A    between atoms: _177  and  _180
REMARK   70  A    between atoms: _180  and  _181
REMARK   71  A    between atoms: _184  and  _186
REMARK   72  A    between atoms: _186  and  _187
REMARK   73  A    between atoms: _186  and  _189
REMARK   74  A    between atoms: _192  and  _194
REMARK   75  A    between atoms: _194  and  _195
REMARK   76  A    between atoms: _194  and  _197
REMARK   77  A    between atoms: _197  and  _198
REMARK   78  A    between atoms: _200  and  _202
REMARK   79  A    between atoms: _202  and  _203
REMARK   80  A    between atoms: _202  and  _205
REMARK   81  A    between atoms: _208  and  _210
REMARK   82  A    between atoms: _210  and  _211
REMARK   83  A    between atoms: _210  and  _213
REMARK   84  A    between atoms: _213  and  _214
REMARK   85  A    between atoms: _214  and  _215
REMARK   86  A    between atoms: _218  and  _220
REMARK   87  A    between atoms: _220  and  _221
REMARK   88  A    between atoms: _220  and  _223
REMARK   89  A    between atoms: _223  and  _224
REMARK   90  A    between atoms: _227  and  _229
REMARK   91  A    between atoms: _229  and  _230
REMARK   92  A    between atoms: _233  and  _235
REMARK   93  A    between atoms: _235  and  _236
REMARK   94  A    between atoms: _235  and  _238
REMARK   95  A    between atoms: _238  and  _239
REMARK   96  A    between atoms: _242  and  _244
REMARK   97  A    between atoms: _244  and  _245
REMARK   98  A    between atoms: _244  and  _247
REMARK   99  A    between atoms: _247  and  _248
REMARK  100  A    between atoms: _248  and  _249
REMARK  101  A    between atoms: _252  and  _254
REMARK  102  A    between atoms: _254  and  _255
REMARK  103  A    between atoms: _254  and  _257
REMARK  104  A    between atoms: _260  and  _262
REMARK  105  A    between atoms: _262  and  _263
REMARK  106  A    between atoms: _262  and  _265
REMARK  107  A    between atoms: _265  and  _266
REMARK  108  A    between atoms: _266  and  _267
REMARK  109  A    between atoms: _269  and  _271
REMARK  110  A    between atoms: _271  and  _272
REMARK  111  A    between atoms: _271  and  _274
REMARK  112  A    between atoms: _274  and  _275
REMARK  113  A    between atoms: _278  and  _280
REMARK  114  A    between atoms: _280  and  _281
REMARK  115  A    between atoms: _280  and  _283
REMARK  116  A    between atoms: _283  and  _284
REMARK  117  A    between atoms: _287  and  _289
REMARK  118  A    between atoms: _289  and  _290
REMARK  119  A    between atoms: _289  and  _292
REMARK  120  A    between atoms: _292  and  _293
REMARK  121  A    between atoms: _293  and  _294
REMARK  122  A    between atoms: _297  and  _299
REMARK  123  A    between atoms: _299  and  _300
REMARK  124  A    between atoms: _299  and  _302
REMARK  125  A    between atoms: _302  and  _303
REMARK  126  A    between atoms: _306  and  _308
REMARK  127  A    between atoms: _308  and  _309
REMARK  128  A    between atoms: _308  and  _311
REMARK  129  A    between atoms: _311  and  _312
REMARK  130  A    between atoms: _314  and  _316
REMARK  131  A    between atoms: _316  and  _317
REMARK  132  A    between atoms: _316  and  _319
REMARK  133  A    between atoms: _319  and  _320
REMARK  134  A    between atoms: _320  and  _321
REMARK  135  A    between atoms: _321  and  _322
REMARK  136  A    between atoms: _331  and  _333
REMARK  137  A    between atoms: _333  and  _334
REMARK  138  A    between atoms: _333  and  _336
REMARK  139  A    between atoms: _336  and  _337
REMARK  140  A    between atoms: _337  and  _338
REMARK  141  A    between atoms: _338  and  _339
REMARK  142  A    between atoms: _348  and  _350
REMARK  143  A    between atoms: _350  and  _351
REMARK  144  A    between atoms: _350  and  _353
REMARK  145  A    between atoms: _353  and  _354
REMARK  146  A    between atoms: _357  and  _359
REMARK  147  A    between atoms: _359  and  _360
REMARK  148  A    between atoms: _359  and  _362
REMARK  149  A    between atoms: _362  and  _363
REMARK  150  A    between atoms: _366  and  _368
REMARK  151  A    between atoms: _368  and  _369
REMARK  152  A    between atoms: _368  and  _371
REMARK  153  A    between atoms: _371  and  _372
REMARK  154  A    between atoms: _378  and  _380
REMARK  155  A    between atoms: _380  and  _381
REMARK  156  A    between atoms: _380  and  _383
REMARK  157  A    between atoms: _383  and  _384
REMARK  158  A    between atoms: _387  and  _389
REMARK  159  A    between atoms: _389  and  _390
REMARK  160  A    between atoms: _389  and  _392
REMARK  161  A    between atoms: _392  and  _393
REMARK  162  A    between atoms: _393  and  _394
REMARK  163  A    between atoms: _394  and  _395
REMARK  164  A    between atoms: _395  and  _396
REMARK  165  A    between atoms: _400  and  _402
REMARK  166  A    between atoms: _402  and  _403
REMARK  167  A    between atoms: _402  and  _405
REMARK  168  A    between atoms: _405  and  _406
REMARK  169  A    between atoms: _409  and  _411
REMARK  170  A    between atoms: _411  and  _412
REMARK  171  A    between atoms: _411  and  _414
REMARK  172  A    between atoms: _414  and  _415
REMARK  173  A    between atoms: _421  and  _423
REMARK  174  A    between atoms: _423  and  _424
REMARK  175  A    between atoms: _423  and  _426
REMARK  176  A    between atoms: _426  and  _427
REMARK  177  A    between atoms: _432  and  _433
REMARK  178  A    between atoms: _435  and  _437
REMARK  179  A    between atoms: _437  and  _438
REMARK  180  A    between atoms: _437  and  _440
REMARK  181  A    between atoms: _440  and  _441
REMARK  182  A    between atoms: _447  and  _449
REMARK  183  A    between atoms: _449  and  _450
REMARK  184  A    between atoms: _453  and  _455
REMARK  185  A    between atoms: _455  and  _456
REMARK  186  A    between atoms: _458  and  _460
REMARK  187  A    between atoms: _460  and  _461
REMARK  188  A    between atoms: _460  and  _463
REMARK  189  A    between atoms: _463  and  _464
REMARK  190  A    between atoms: _467  and  _469
REMARK  191  A    between atoms: _469  and  _470
REMARK  192  A    between atoms: _469  and  _472
REMARK  193  A    between atoms: _472  and  _473
REMARK  194  A    between atoms: _473  and  _474
REMARK  195  A    between atoms: _479  and  _481
REMARK  196  A    between atoms: _481  and  _482
REMARK  197  A    between atoms: _481  and  _484
REMARK  198  A    between atoms: _484  and  _485
REMARK  199  A    between atoms: _491  and  _493
REMARK  200  A    between atoms: _493  and  _494
REMARK  201  A    between atoms: _493  and  _496
REMARK  202  A    between atoms: _496  and  _497
REMARK  203  A    between atoms: _500  and  _502
REMARK  204  A    between atoms: _502  and  _503
REMARK  205  A    between atoms: _502  and  _505
REMARK  206  A    between atoms: _505  and  _506
REMARK  207  A    between atoms: _512  and  _514
REMARK  208  A    between atoms: _514  and  _515
REMARK  209  A    between atoms: _514  and  _517
REMARK  210  A    between atoms: _517  and  _518
REMARK  211  A    between atoms: _520  and  _522
REMARK  212  A    between atoms: _522  and  _523
REMARK  213  A    between atoms: _522  and  _525
REMARK  214  A    between atoms: _525  and  _526
REMARK  215  A    between atoms: _529  and  _531
REMARK  216  A    between atoms: _531  and  _532
REMARK  217  A    between atoms: _531  and  _534
REMARK  218  A    between atoms: _534  and  _535
REMARK  219  A    between atoms: _540  and  _542
REMARK  220  A    between atoms: _542  and  _543
REMARK  221  A    between atoms: _542  and  _545
REMARK  222  A    between atoms: _545  and  _546
REMARK  223  A    between atoms: _548  and  _550
REMARK  224  A    between atoms: _550  and  _551
REMARK  225  A    between atoms: _550  and  _553
REMARK  226  A    between atoms: _553  and  _554
REMARK  227  A    between atoms: _554  and  _555
REMARK  228  A    between atoms: _560  and  _562
REMARK  229  A    between atoms: _562  and  _563
REMARK  230  A    between atoms: _562  and  _565
REMARK  231  A    between atoms: _568  and  _570
REMARK  232  A    between atoms: _570  and  _571
REMARK  233  A    between atoms: _570  and  _573
REMARK  234  A    between atoms: _573  and  _574
REMARK  235  A    between atoms: _580  and  _582
REMARK  236  A    between atoms: _582  and  _583
REMARK  237  A    between atoms: _586  and  _588
REMARK  238  A    between atoms: _588  and  _589
REMARK  239  A    between atoms: _588  and  _591
REMARK  240  A    between atoms: _591  and  _592
REMARK  241  A    between atoms: _595  and  _597
REMARK  242  A    between atoms: _597  and  _598
REMARK  243  A    between atoms: _597  and  _600
REMARK  244  A    between atoms: _600  and  _601
REMARK  245  A    between atoms: _601  and  _602
REMARK  246  A    between atoms: _607  and  _609
REMARK  247  A    between atoms: _609  and  _610
REMARK  248  A    between atoms: _609  and  _612
REMARK  249  A    between atoms: _612  and  _613
REMARK  250  A    between atoms: _613  and  _614
REMARK  251  A    between atoms: _614  and  _615
REMARK  252  A    between atoms: _615  and  _616
REMARK  253  A    between atoms: _620  and  _622
REMARK  254  A    between atoms: _622  and  _623
REMARK  255  A    between atoms: _622  and  _625
REMARK  256  A    between atoms: _625  and  _626
REMARK  257  A    between atoms: _626  and  _627
REMARK  258  A    between atoms: _627  and  _628
REMARK  259  A    between atoms: _628  and  _629
REMARK  260  A    between atoms: _633  and  _635
REMARK  261  A    between atoms: _635  and  _636
REMARK  262  A    between atoms: _635  and  _638
REMARK  263  A    between atoms: _638  and  _639
REMARK  264  A    between atoms: _643  and  _644
REMARK  265  A    between atoms: _649  and  _651
REMARK  266  A    between atoms: _651  and  _652
REMARK  267  A    between atoms: _651  and  _654
REMARK  268  A    between atoms: _654  and  _655
REMARK  269  A    between atoms: _658  and  _660
REMARK  270  A    between atoms: _660  and  _661
REMARK  271  A    between atoms: _660  and  _663
REMARK  272  A    between atoms: _663  and  _664
REMARK  273  A    between atoms: _666  and  _668
REMARK  274  A    between atoms: _668  and  _669
REMARK  275  A    between atoms: _668  and  _671
REMARK  276  A    between atoms: _671  and  _672
REMARK                            x       y       z     vdW  Elec       q    Type
REMARK                         _______ _______ _______ _____ _____    ______ ____
ROOT
ATOM      1  CA  VAL A   1      16.054  -5.495  19.988  0.00  0.00    +0.133 C 
ENDROOT
BRANCH   1   2
ATOM      2  CB  VAL A   1      16.068  -6.916  19.351  0.00  0.00    +0.023 C 
ATOM      3  CG2 VAL A   1      15.929  -7.988  20.437  0.00  0.00    +0.002 C 
ATOM      4  CG1 VAL A   1      17.332  -7.148  18.520  0.00  0.00    +0.002 C 
ENDBRANCH   1   2
BRANCH   1   5
ATOM      5  N   VAL A   1      14.721  -5.140  20.484  0.00  0.00    -0.239 NA
ATOM      6  H   VAL A   1      13.925  -5.788  20.314  0.00  0.00    +0.142 HD
ENDBRANCH   1   5
BRANCH   1   7
ATOM      7  C   VAL A   1      16.476  -4.444  18.959  0.00  0.00    +0.224 C 
ATOM      8  O   VAL A   1      15.659  -4.027  18.137  0.00  0.00    -0.287 OA
ENDBRANCH   1   7
TORSDOF 3
REMARK  Name = ../refined-set-2016/3ipu/3ipu_pocket.pdb
REMARK  276 active torsions:
REMARK  status: ('A' for Active; 'I' for Inactive)
REMARK    1  A    between atoms: _1  and  _3
REMARK    2  A    between atoms: _3  and  _4
REMARK    3  A    between atoms: _3  and  _6
REMARK    4  A    between atoms: _6  and  _7
REMARK    5  A    between atoms: _12  and  _14
REMARK    6  A    between atoms: _14  and  _15
REMARK    7  A    between atoms: _14  and  _17
REMARK    8  A    between atoms: _17  and  _18
REMARK    9  A    between atoms: _18  and  _19
REMARK   10  A    between atoms: _19  and  _20
REMARK   11  A    between atoms: _29  and  _31
REMARK   12  A    between atoms: _31  and  _32
REMARK   13  A    between atoms: _31  and  _34
REMARK   14  A    between atoms: _34  and  _35
REMARK   15  A    between atoms: _37  and  _39
REMARK   16  A    between atoms: _39  and  _40
REMARK   17  A    between atoms: _39  and  _42
REMARK   18  A    between atoms: _42  and  _43
REMARK   19  A    between atoms: _49  and  _51
REMARK   20  A    between atoms: _51  and  _52
REMARK   21  A    between atoms: _51  and  _54
REMARK   22  A    between atoms: _54  and  _55
REMARK   23  A    between atoms: _55  and  _56
REMARK   24  A    between atoms: _56  and  _57
REMARK   25  A    between atoms: _66  and  _68
REMARK   26  A    between atoms: _68  and  _69
REMARK   27  A    between atoms: _68  and  _71
REMARK   28  A    between atoms: _71  and  _72
REMARK   29  A    between atoms: _75  and  _77
REMARK   30  A    between atoms: _77  and  _78
REMARK   31  A    between atoms: _77  and  _80
REMARK   32  A    between atoms: _83  and  _85
REMARK   33  A    between atoms: _85  and  _86
REMARK   34  A    between atoms: _85  and  _88
REMARK   35  A    between atoms: _88  and  _89
REMARK   36  A    between atoms: _89  and  _90
REMARK   37  A    between atoms: _90  and  _91
REMARK   38  A    between atoms: _100  and  _102
REMARK   39  A    between atoms: _102  and  _103
REMARK   40  A    between atoms: _102  and  _105
REMARK   41  A    between atoms: _105  and  _106
REMARK   42  A    between atoms: _112  and  _114
REMARK   43  A    between atoms: _114  and  _115
REMARK   44  A    between atoms: _118  and  _120
REMARK   45  A    between atoms: _120  and  _121
REMARK   46  A    between atoms: _120  and  _123
REMARK   47  A    between atoms: _123  and  _124
REMARK   48  A    between atoms: _129  and  _131
REMARK   49  A    between atoms: _131  and  _132
REMARK   50  A    between atoms: _131  and  _134
REMARK   51  A    between atoms: _134  and  _135
REMARK   52  A    between atoms: _141  and  _143
REMARK   53  A    between atoms: _143  and  _144
REMARK   54  A    between atoms: _143  and  _146
REMARK   55  A    between atoms: _146  and  _147
REMARK   56  A    between atoms: _150  and  _152
REMARK   57  A    between atoms: _152  and  _153
REMARK   58  A    between atoms: _152  and  _155
REMARK   59  A    between atoms: _155  and  _156
REMARK   60  A    between atoms: _156  and  _157
REMARK   61  A    between atoms: _160  and  _162
REMARK   62  A    between atoms: _162  and  _163
REMARK   63  A    between atoms: _162  and  _165
REMARK   64  A    between atoms: _165  and  _166
REMARK   65  A    between atoms: _169  and  _171
REMARK   66  A    between atoms: _171  and  _172
REMARK   67  A    between atoms: _175  and  _177
REMARK   68  A    between atoms: _177  and  _178
REMARK   69  A    between atoms: _177  and  _180
REMARK   70  A    between atoms: _180  and  _181
REMARK   71  A    between atoms: _184  and  _186
REMARK   72  A    between atoms: _186  and  _187
REMARK   73  A    between atoms: _186  and  _189
REMARK   74  A    between atoms: _192  and  _194
REMARK   75  A    between atoms: _194  and  _195
REMARK   76  A    between atoms: _194  and  _197
REMARK   77  A    between atoms: _197  and  _198
REMARK   78  A    between atoms: _200  and  _202
REMARK   79  A    between atoms: _202  and  _203
REMARK   80  A    between atoms: _202  and  _205
REMARK   81  A    between atoms: _208  and  _210
REMARK   82  A    between atoms: _210  and  _211
REMARK   83  A    between atoms: _210  and  _213
REMARK   84  A    between atoms: _213  and  _214
REMARK   85  A    between atoms: _214  and  _215
REMARK   86  A    between atoms: _218  and  _220
REMARK   87  A    between atoms: _220  and  _221
REMARK   88  A    between atoms: _220  and  _223
REMARK   89  A    between atoms: _223  and  _224
REMARK   90  A    between atoms: _227  and  _229
REMARK   91  A    between atoms: _229  and  _230
REMARK   92  A    between atoms: _233  and  _235
REMARK   93  A    between atoms: _235  and  _236
REMARK   94  A    between atoms: _235  and  _238
REMARK   95  A    between atoms: _238  and  _239
REMARK   96  A    between atoms: _242  and  _244
REMARK   97  A    between atoms: _244  and  _245
REMARK   98  A    between atoms: _244  and  _247
REMARK   99  A    between atoms: _247  and  _248
REMARK  100  A    between atoms: _248  and  _249
REMARK  101  A    between atoms: _252  and  _254
REMARK  102  A    between atoms: _254  and  _255
REMARK  103  A    between atoms: _254  and  _257
REMARK  104  A    between atoms: _260  and  _262
REMARK  105  A    between atoms: _262  and  _263
REMARK  106  A    between atoms: _262  and  _265
REMARK  107  A    between atoms: _265  and  _266
REMARK  108  A    between atoms: _266  and  _267
REMARK  109  A    between atoms: _269  and  _271
REMARK  110  A    between atoms: _271  and  _272
REMARK  111  A    between atoms: _271  and  _274
REMARK  112  A    between atoms: _274  and  _275
REMARK  113  A    between atoms: _278  and  _280
REMARK  114  A    between atoms: _280  and  _281
REMARK  115  A    between atoms: _280  and  _283
REMARK  116  A    between atoms: _283  and  _284
REMARK  117  A    between atoms: _287  and  _289
REMARK  118  A    between atoms: _289  and  _290
REMARK  119  A    between atoms: _289  and  _292
REMARK  120  A    between atoms: _292  and  _293
REMARK  121  A    between atoms: _293  and  _294
REMARK  122  A    between atoms: _297  and  _299
REMARK  123  A    between atoms: _299  and  _300
REMARK  124  A    between atoms: _299  and  _302
REMARK  125  A    between atoms: _302  and  _303
REMARK  126  A    between atoms: _306  and  _308
REMARK  127  A    between atoms: _308  and  _309
REMARK  128  A    between atoms: _308  and  _311
REMARK  129  A    between atoms: _311  and  _312
REMARK  130  A    between atoms: _314  and  _316
REMARK  131  A    between atoms: _316  and  _317
REMARK  132  A    between atoms: _316  and  _319
REMARK  133  A    between atoms: _319  and  _320
REMARK  134  A    between atoms: _320  and  _321
REMARK  135  A    between atoms: _321  and  _322
REMARK  136  A    between atoms: _331  and  _333
REMARK  137  A    between atoms: _333  and  _334
REMARK  138  A    between atoms: _333  and  _336
REMARK  139  A    between atoms: _336  and  _337
REMARK  140  A    between atoms: _337  and  _338
REMARK  141  A    between atoms: _338  and  _339
REMARK  142  A    between atoms: _348  and  _350
REMARK  143  A    between atoms: _350  and  _351
REMARK  144  A    between atoms: _350  and  _353
REMARK  145  A    between atoms: _353  and  _354
REMARK  146  A    between atoms: _357  and  _359
REMARK  147  A    between atoms: _359  and  _360
REMARK  148  A    between atoms: _359  and  _362
REMARK  149  A    between atoms: _362  and  _363
REMARK  150  A    between atoms: _366  and  _368
REMARK  151  A    between atoms: _368  and  _369
REMARK  152  A    between atoms: _368  and  _371
REMARK  153  A    between atoms: _371  and  _372
REMARK  154  A    between atoms: _378  and  _380
REMARK  155  A    between atoms: _380  and  _381
REMARK  156  A    between atoms: _380  and  _383
REMARK  157  A    between atoms: _383  and  _384
REMARK  158  A    between atoms: _387  and  _389
REMARK  159  A    between atoms: _389  and  _390
REMARK  160  A    between atoms: _389  and  _392
REMARK  161  A    between atoms: _392  and  _393
REMARK  162  A    between atoms: _393  and  _394
REMARK  163  A    between atoms: _394  and  _395
REMARK  164  A    between atoms: _395  and  _396
REMARK  165  A    between atoms: _400  and  _402
REMARK  166  A    between atoms: _402  and  _403
REMARK  167  A    between atoms: _402  and  _405
REMARK  168  A    between atoms: _405  and  _406
REMARK  169  A    between atoms: _409  and  _411
REMARK  170  A    between atoms: _411  and  _412
REMARK  171  A    between atoms: _411  and  _414
REMARK  172  A    between atoms: _414  and  _415
REMARK  173  A    between atoms: _421  and  _423
REMARK  174  A    between atoms: _423  and  _424
REMARK  175  A    between atoms: _423  and  _426
REMARK  176  A    between atoms: _426  and  _427
REMARK  177  A    between atoms: _432  and  _433
REMARK  178  A    between atoms: _435  and  _437
REMARK  179  A    between atoms: _437  and  _438
REMARK  180  A    between atoms: _437  and  _440
REMARK  181  A    between atoms: _440  and  _441
REMARK  182  A    between atoms: _447  and  _449
REMARK  183  A    between atoms: _449  and  _450
REMARK  184  A    between atoms: _453  and  _455
REMARK  185  A    between atoms: _455  and  _456
REMARK  186  A    between atoms: _458  and  _460
REMARK  187  A    between atoms: _460  and  _461
REMARK  188  A    between atoms: _460  and  _463
REMARK  189  A    between atoms: _463  and  _464
REMARK  190  A    between atoms: _467  and  _469
REMARK  191  A    between atoms: _469  and  _470
REMARK  192  A    between atoms: _469  and  _472
REMARK  193  A    between atoms: _472  and  _473
REMARK  194  A    between atoms: _473  and  _474
REMARK  195  A    between atoms: _479  and  _481
REMARK  196  A    between atoms: _481  and  _482
REMARK  197  A    between atoms: _481  and  _484
REMARK  198  A    between atoms: _484  and  _485
REMARK  199  A    between atoms: _491  and  _493
REMARK  200  A    between atoms: _493  and  _494
REMARK  201  A    between atoms: _493  and  _496
REMARK  202  A    between atoms: _496  and  _497
REMARK  203  A    between atoms: _500  and  _502
REMARK  204  A    between atoms: _502  and  _503
REMARK  205  A    between atoms: _502  and  _505
REMARK  206  A    between atoms: _505  and  _506
REMARK  207  A    between atoms: _512  and  _514
REMARK  208  A    between atoms: _514  and  _515
REMARK  209  A    between atoms: _514  and  _517
REMARK  210  A    between atoms: _517  and  _518
REMARK  211  A    between atoms: _520  and  _522
REMARK  212  A    between atoms: _522  and  _523
REMARK  213  A    between atoms: _522  and  _525
REMARK  214  A    between atoms: _525  and  _526
REMARK  215  A    between atoms: _529  and  _531
REMARK  216  A    between atoms: _531  and  _532
REMARK  217  A    between atoms: _531  and  _534
REMARK  218  A    between atoms: _534  and  _535
REMARK  219  A    between atoms: _540  and  _542
REMARK  220  A    between atoms: _542  and  _543
REMARK  221  A    between atoms: _542  and  _545
REMARK  222  A    between atoms: _545  and  _546
REMARK  223  A    between atoms: _548  and  _550
REMARK  224  A    between atoms: _550  and  _551
REMARK  225  A    between atoms: _550  and  _553
REMARK  226  A    between atoms: _553  and  _554
REMARK  227  A    between atoms: _554  and  _555
REMARK  228  A    between atoms: _560  and  _562
REMARK  229  A    between atoms: _562  and  _563
REMARK  230  A    between atoms: _562  and  _565
REMARK  231  A    between atoms: _568  and  _570
REMARK  232  A    between atoms: _570  and  _571
REMARK  233  A    between atoms: _570  and  _573
REMARK  234  A    between atoms: _573  and  _574
REMARK  235  A    between atoms: _580  and  _582
REMARK  236  A    between atoms: _582  and  _583
REMARK  237  A    between atoms: _586  and  _588
REMARK  238  A    between atoms: _588  and  _589
REMARK  239  A    between atoms: _588  and  _591
REMARK  240  A    between atoms: _591  and  _592
REMARK  241  A    between atoms: _595  and  _597
REMARK  242  A    between atoms: _597  and  _598
REMARK  243  A    between atoms: _597  and  _600
REMARK  244  A    between atoms: _600  and  _601
REMARK  245  A    between atoms: _601  and  _602
REMARK  246  A    between atoms: _607  and  _609
REMARK  247  A    between atoms: _609  and  _610
REMARK  248  A    between atoms: _609  and  _612
REMARK  249  A    between atoms: _612  and  _613
REMARK  250  A    between atoms: _613  and  _614
REMARK  251  A    between atoms: _614  and  _615
REMARK  252  A    between atoms: _615  and  _616
REMARK  253  A    between atoms: _620  and  _622
REMARK  254  A    between atoms: _622  and  _623
REMARK  255  A    between atoms: _622  and  _625
REMARK  256  A    between atoms: _625  and  _626
REMARK  257  A    between atoms: _626  and  _627
REMARK  258  A    between atoms: _627  and  _628
REMARK  259  A    between atoms: _628  and  _629
REMARK  260  A    between atoms: _633  and  _635
REMARK  261  A    between atoms: _635  and  _636
REMARK  262  A    between atoms: _635  and  _638
REMARK  263  A    between atoms: _638  and  _639
REMARK  264  A    between atoms: _643  and  _644
REMARK  265  A    between atoms: _649  and  _651
REMARK  266  A    between atoms: _651  and  _652
REMARK  267  A    between atoms: _651  and  _654
REMARK  268  A    between atoms: _654  and  _655
REMARK  269  A    between atoms: _658  and  _660
REMARK  270  A    between atoms: _660  and  _661
REMARK  271  A    between atoms: _660  and  _663
REMARK  272  A    between atoms: _663  and  _664
REMARK  273  A    between atoms: _666  and  _668
REMARK  274  A    between atoms: _668  and  _669
REMARK  275  A    between atoms: _668  and  _671
REMARK  276  A    between atoms: _671  and  _672
REMARK                            x       y       z     vdW  Elec       q    Type
REMARK                         _______ _______ _______ _____ _____    ______ ____
ROOT
ATOM      1  CA  THR A   6      23.683 -10.510  20.957  0.00  0.00    +0.176 C 
ENDROOT
BRANCH   1   2
ATOM      2  C   THR A   6      22.414 -10.256  21.778  0.00  0.00    +0.243 C 
ATOM      3  O   THR A   6      22.192 -10.901  22.818  0.00  0.00    -0.273 OA
ATOM      4  N   GLU A   7      21.582  -9.332  21.302  0.00  0.00    -0.297 N 
ATOM      5  H   GLU A   7      21.834  -8.815  20.435  0.00  0.00    +0.150 HD
BRANCH   4   6
ATOM      6  CA  GLU A   7      20.318  -9.030  21.977  0.00  0.00    +0.149 C 
BRANCH   6   7
ATOM      7  C   GLU A   7      19.256 -10.097  21.725  0.00  0.00    +0.241 C 
ATOM      8  O   GLU A   7      18.386 -10.311  22.555  0.00  0.00    -0.273 OA
ATOM      9  N   LEU A   8      19.328 -10.763  20.583  0.00  0.00    -0.297 N 
ATOM     10  H   LEU A   8      19.949 -10.413  19.825  0.00  0.00    +0.150 HD
BRANCH   9  11
ATOM     11  CA  LEU A   8      18.549 -11.982  20.369  0.00  0.00    +0.149 C 
BRANCH  11  12
ATOM     12  C   LEU A   8      18.954 -13.063  21.382  0.00  0.00    +0.241 C 
ATOM     13  O   LEU A   8      18.095 -13.749  21.937  0.00  0.00    -0.273 OA
ATOM     14  N   ALA A   9      20.258 -13.188  21.623  0.00  0.00    -0.297 N 
ATOM     15  H   ALA A   9      20.917 -12.546  21.137  0.00  0.00    +0.150 HD
BRANCH  14  16
ATOM     16  CA  ALA A   9      20.805 -14.187  22.540  0.00  0.00    +0.149 C 
ATOM     17  CB  ALA A   9      22.309 -14.282  22.370  0.00  0.00    +0.031 C 
BRANCH  16  18
ATOM     18  C   ALA A   9      20.431 -13.895  24.002  0.00  0.00    +0.241 C 
ATOM     19  O   ALA A   9      20.125 -14.819  24.773  0.00  0.00    -0.273 OA
ATOM     20  N   ILE A  10      20.417 -12.612  24.369  0.00  0.00    -0.297 N 
ATOM     21  H   ILE A  10      20.709 -11.889  23.680  0.00  0.00    +0.150 HD
BRANCH  20  22
ATOM     22  CA  ILE A  10      20.005 -12.188  25.708  0.00  0.00    +0.149 C 
BRANCH  22  23
ATOM     23  C   ILE A  10      18.582 -12.649  26.018  0.00  0.00    +0.241 C 
ATOM     24  O   ILE A  10      18.351 -13.261  27.057  0.00  0.00    -0.273 OA
ATOM     25  N   VAL A  11      17.644 -12.371  25.112  0.00  0.00    -0.297 N 
ATOM     26  H   VAL A  11      17.914 -11.841  24.259  0.00  0.00    +0.150 HD
BRANCH  25  27
ATOM     27  CA  VAL A  11      16.244 -12.785  25.273  0.00  0.00    +0.149 C 
BRANCH  27  28
ATOM     28  C   VAL A  11      16.078 -14.321  25.264  0.00  0.00    +0.241 C 
ATOM     29  O   VAL A  11      15.236 -14.883  25.970  0.00  0.00    -0.273 OA
ATOM     30  N   SER A  12      16.878 -14.987  24.443  0.00  0.00    -0.295 N 
ATOM     31  H   SER A  12      17.508 -14.452  23.811  0.00  0.00    +0.150 HD
BRANCH  30  32
ATOM     32  CA  SER A  12      16.904 -16.433  24.397  0.00  0.00    +0.178 C 
BRANCH  32  33
ATOM     33  C   SER A  12      17.268 -17.015  25.781  0.00  0.00    +0.243 C 
ATOM     34  N   VAL A  13      18.322 -16.487  26.407  0.00  0.00    -0.298 N 
ATOM     35  H   VAL A  13      18.892 -15.769  25.916  0.00  0.00    +0.150 HD
ATOM     36  O   SER A  12      16.572 -17.892  26.285  0.00  0.00    -0.273 OA
BRANCH  34  37
ATOM     37  CA  VAL A  13      18.701 -16.890  27.769  0.00  0.00    +0.137 C 
BRANCH  37  38
ATOM     38  CB  VAL A  13      19.995 -16.181  28.260  0.00  0.00    +0.026 C 
ATOM     39  CG2 VAL A  13      20.278 -16.483  29.749  0.00  0.00    +0.002 C 
ATOM     40  CG1 VAL A  13      21.190 -16.552  27.391  0.00  0.00    +0.002 C 
ENDBRANCH  37  38
BRANCH  37  41
ATOM     41  C   VAL A  13      17.568 -16.627  28.760  0.00  0.00    +0.227 C 
ATOM     42  O   VAL A  13      17.304 -17.457  29.634  0.00  0.00    -0.286 OA
ENDBRANCH  37  41
ENDBRANCH  34  37
ENDBRANCH  32  33
BRANCH  32  43
ATOM     43  CB  SER A  12      17.877 -16.899  23.297  0.00  0.00    +0.166 C 
BRANCH  43  44
ATOM     44  OG  SER A  12      17.773 -18.298  23.065  0.00  0.00    -0.380 OA
ATOM     45  H   SER A  12      16.850 -18.516  22.780  0.00  0.00    +0.211 HD
ENDBRANCH  43  44
ENDBRANCH  32  43
ENDBRANCH  30  32
ENDBRANCH  27  28
BRANCH  27  46
ATOM     46  CB  VAL A  11      15.341 -12.179  24.154  0.00  0.00    +0.027 C 
ATOM     47  CG2 VAL A  11      13.891 -12.582  24.362  0.00  0.00    +0.002 C 
ATOM     48  CG1 VAL A  11      15.470 -10.638  24.106  0.00  0.00    +0.002 C 
ENDBRANCH  27  46
ENDBRANCH  25  27
ENDBRANCH  22  23
BRANCH  22  49
ATOM     49  CB  ILE A  10      20.129 -10.652  25.893  0.00  0.00    +0.027 C 
ATOM     50  CG2 ILE A  10      19.364 -10.197  27.123  0.00  0.00    +0.002 C 
BRANCH  49  51
ATOM     51  CG1 ILE A  10      21.602 -10.253  26.039  0.00  0.00    +0.002 C 
ATOM     52  CD1 ILE A  10      21.834  -8.754  26.187  0.00  0.00    +0.000 C 
ENDBRANCH  49  51
ENDBRANCH  22  49
ENDBRANCH  20  22
ENDBRANCH  16  18
ENDBRANCH  14  16
ENDBRANCH  11  12
BRANCH  11  53
ATOM     53  CB  LEU A   8      18.718 -12.506  18.932  0.00  0.00    +0.029 C 
BRANCH  53  54
ATOM     54  CG  LEU A   8      18.129 -11.669  17.793  0.00  0.00    +0.002 C 
ATOM     55  CD2 LEU A   8      16.650 -11.405  17.993  0.00  0.00    +0.000 C 
ATOM     56  CD1 LEU A   8      18.389 -12.349  16.445  0.00  0.00    +0.000 C 
ENDBRANCH  53  54
ENDBRANCH  11  53
ENDBRANCH   9  11
ENDBRANCH   6   7
BRANCH   6  57
ATOM     57  CB  GLU A   7      19.813  -7.631  21.599  0.00  0.00    +0.041 C 
BRANCH  57  58
ATOM     58  CG  GLU A   7      20.519  -6.496  22.356  0.00  0.00    +0.116 C 
BRANCH  58  59
ATOM     59  CD  GLU A   7      20.232  -5.130  21.756  0.00  0.00    +0.365 C 
ATOM     60  OE2 GLU A   7      21.104  -4.239  21.873  0.00  0.00    -0.246 OA
ATOM     61  OE1 GLU A   7      19.137  -4.953  21.169  0.00  0.00    -0.246 OA
ENDBRANCH  58  59
ENDBRANCH  57  58
ENDBRANCH   6  57
ENDBRANCH   4   6
ENDBRANCH   1   2
BRANCH   1  63
ATOM     62  C   PHE A   5      22.618 -11.047  18.841  0.00  0.00    +0.241 C 
ATOM     63  N   THR A   6      23.458 -10.290  19.541  0.00  0.00    -0.295 N 
ATOM     64  H   THR A   6      23.967  -9.520  19.061  0.00  0.00    +0.150 HD
ATOM     65  O   PHE A   5      21.986 -11.980  19.333  0.00  0.00    -0.273 OA
BRANCH  62  66
ATOM     66  CA  PHE A   5      22.459 -10.699  17.356  0.00  0.00    +0.153 C 
BRANCH  66  69
ATOM     67  C   HIS A   4      21.243  -8.592  17.561  0.00  0.00    +0.241 C 
ATOM     68  O   HIS A   4      20.356  -9.105  18.224  0.00  0.00    -0.273 OA
ATOM     69  N   PHE A   5      22.302  -9.263  17.123  0.00  0.00    -0.297 N 
ATOM     70  H   PHE A   5      23.041  -8.753  16.599  0.00  0.00    +0.150 HD
BRANCH  67  71
ATOM     71  CA  HIS A   4      21.174  -7.111  17.201  0.00  0.00    +0.155 C 
BRANCH  71  74
ATOM     72  C   ALA A   3      22.918  -6.365  18.771  0.00  0.00    +0.241 C 
ATOM     73  O   ALA A   3      22.428  -6.952  19.741  0.00  0.00    -0.273 OA
ATOM     74  N   HIS A   4      22.403  -6.403  17.546  0.00  0.00    -0.297 N 
ATOM     75  H   HIS A   4      22.906  -5.898  16.788  0.00  0.00    +0.150 HD
BRANCH  72  76
ATOM     76  CA  ALA A   3      24.211  -5.551  18.920  0.00  0.00    +0.149 C 
ATOM     77  CB  ALA A   3      23.916  -4.045  18.890  0.00  0.00    +0.031 C 
BRANCH  76  80
ATOM     78  C   PHE A   2      25.538  -7.185  17.681  0.00  0.00    +0.241 C 
ATOM     79  O   PHE A   2      25.212  -8.110  18.435  0.00  0.00    -0.273 OA
ATOM     80  N   ALA A   3      25.150  -5.921  17.859  0.00  0.00    -0.297 N 
ATOM     81  H   ALA A   3      25.523  -5.182  17.230  0.00  0.00    +0.150 HD
BRANCH  78  82
ATOM     82  CA  PHE A   2      26.446  -7.452  16.490  0.00  0.00    +0.153 C 
BRANCH  82  84
ATOM     83  C   ARG A   1      24.775  -7.072  14.767  0.00  0.00    +0.238 C 
ATOM     84  N   PHE A   2      25.947  -6.769  15.319  0.00  0.00    -0.297 N 
ATOM     85  H   PHE A   2      26.523  -6.015  14.893  0.00  0.00    +0.150 HD
ATOM     86  O   ARG A   1      24.091  -8.034  15.109  0.00  0.00    -0.274 OA
BRANCH  83  87
ATOM     87  CA  ARG A   1      24.324  -6.164  13.634  0.00  0.00    +0.145 C 
BRANCH  87  88
ATOM     88  N   ARG A   1      24.594  -4.767  13.944  0.00  0.00    -0.238 NA
ATOM     89  H   ARG A   1      25.344  -4.276  13.417  0.00  0.00    +0.142 HD
ENDBRANCH  87  88
BRANCH  87  90
ATOM     90  CB  ARG A   1      25.060  -6.563  12.366  0.00  0.00    +0.030 C 
BRANCH  90  91
ATOM     91  CG  ARG A   1      24.493  -5.947  11.130  0.00  0.00    +0.045 C 
BRANCH  91  92
ATOM     92  CD  ARG A   1      25.260  -6.352   9.894  0.00  0.00    +0.174 C 
BRANCH  92  93
ATOM     93  NE  ARG A   1      24.672  -5.701   8.726  0.00  0.00    -0.265 N 
ATOM     94  HE  ARG A   1      23.698  -5.967   8.476  0.00  0.00    +0.259 HD
ATOM     95  CZ  ARG A   1      25.272  -4.796   7.952  0.00  0.00    +0.342 C 
ATOM     96  NH2 ARG A   1      26.535  -4.417   8.165  0.00  0.00    -0.292 N 
ATOM     97 HH21 ARG A   1      27.076  -4.830   8.951  0.00  0.00    +0.255 HD
ATOM     98 HH22 ARG A   1      26.977  -3.709   7.545  0.00  0.00    +0.255 HD
ATOM     99  NH1 ARG A   1      24.594  -4.282   6.934  0.00  0.00    -0.292 N 
ATOM    100 HH11 ARG A   1      23.616  -4.587   6.754  0.00  0.00    +0.255 HD
ATOM    101 HH12 ARG A   1      25.040  -3.575   6.316  0.00  0.00    +0.255 HD
ENDBRANCH  92  93
ENDBRANCH  91  92
ENDBRANCH  90  91
ENDBRANCH  87  90
ENDBRANCH  83  87
ENDBRANCH  82  84
BRANCH  82 102
ATOM    102  CB  PHE A   2      27.872  -7.003  16.812  0.00  0.00    +0.055 C 
BRANCH 102 103
ATOM    103  CG  PHE A   2      28.456  -7.661  18.029  0.00  0.00    -0.020 A 
ATOM    104  CD2 PHE A   2      28.540  -6.972  19.236  0.00  0.00    -0.004 A 
ATOM    105  CE2 PHE A   2      29.079  -7.571  20.367  0.00  0.00    -0.000 A 
ATOM    106  CZ  PHE A   2      29.542  -8.874  20.294  0.00  0.00    -0.000 A 
ATOM    107  CE1 PHE A   2      29.457  -9.581  19.089  0.00  0.00    -0.000 A 
ATOM    108  CD1 PHE A   2      28.914  -8.972  17.972  0.00  0.00    -0.004 A 
ENDBRANCH 102 103
ENDBRANCH  82 102
ENDBRANCH  78  82
ENDBRANCH  76  80
ENDBRANCH  72  76
ENDBRANCH  71  74
BRANCH  71 109
ATOM    109  CB  HIS A   4      20.889  -6.947  15.695  0.00  0.00    +0.076 C 
BRANCH 109 110
ATOM    110  CG  HIS A   4      19.686  -7.695  15.210  0.00  0.00    +0.082 A 
ATOM    111  ND1 HIS A   4      18.404  -7.223  15.371  0.00  0.00    -0.227 NA
ATOM    112  CE1 HIS A   4      17.550  -8.078  14.836  0.00  0.00    +0.199 A 
ATOM    113  NE2 HIS A   4      18.235  -9.083  14.322  0.00  0.00    -0.221 NA
ATOM    114  CD2 HIS A   4      19.573  -8.868  14.543  0.00  0.00    +0.115 A 
ENDBRANCH 109 110
ENDBRANCH  71 109
ENDBRANCH  67  71
ENDBRANCH  66  69
BRANCH  66 115
ATOM    115  CB  PHE A   5      23.628 -11.273  16.534  0.00  0.00    +0.055 C 
BRANCH 115 116
ATOM    116  CG  PHE A   5      23.190 -12.217  15.452  0.00  0.00    -0.020 A 
ATOM    117  CD2 PHE A   5      23.516 -13.566  15.515  0.00  0.00    -0.004 A 
ATOM    118  CE2 PHE A   5      23.104 -14.452  14.523  0.00  0.00    -0.000 A 
ATOM    119  CZ  PHE A   5      22.341 -13.980  13.441  0.00  0.00    -0.000 A 
ATOM    120  CE1 PHE A   5      22.000 -12.619  13.379  0.00  0.00    -0.000 A 
ATOM    121  CD1 PHE A   5      22.431 -11.756  14.383  0.00  0.00    -0.004 A 
ENDBRANCH 115 116
ENDBRANCH  66 115
ENDBRANCH  62  66
ENDBRANCH   1  63
BRANCH   1 122
ATOM    122  CB  THR A   6      24.829  -9.643  21.502  0.00  0.00    +0.137 C 
ATOM    123  CG2 THR A   6      26.169 -10.140  20.962  0.00  0.00    +0.034 C 
BRANCH 122 124
ATOM    124  OG1 THR A   6      24.621  -8.266  21.148  0.00  0.00    -0.382 OA
ATOM    125  HG1 THR A   6      24.590  -8.181  20.162  0.00  0.00    +0.210 HD
ENDBRANCH 122 124
ENDBRANCH   1 122
TORSDOF 49
REMARK  Name = ../refined-set-2016/3ipu/3ipu_pocket.pdb
REMARK  276 active torsions:
REMARK  status: ('A' for Active; 'I' for Inactive)
REMARK    1  A    between atoms: _1  and  _3
REMARK    2  A    between atoms: _3  and  _4
REMARK    3  A    between atoms: _3  and  _6
REMARK    4  A    between atoms: _6  and  _7
REMARK    5  A    between atoms: _12  and  _14
REMARK    6  A    between atoms: _14  and  _15
REMARK    7  A    between atoms: _14  and  _17
REMARK    8  A    between atoms: _17  and  _18
REMARK    9  A    between atoms: _18  and  _19
REMARK   10  A    between atoms: _19  and  _20
REMARK   11  A    between atoms: _29  and  _31
REMARK   12  A    between atoms: _31  and  _32
REMARK   13  A    between atoms: _31  and  _34
REMARK   14  A    between atoms: _34  and  _35
REMARK   15  A    between atoms: _37  and  _39
REMARK   16  A    between atoms: _39  and  _40
REMARK   17  A    between atoms: _39  and  _42
REMARK   18  A    between atoms: _42  and  _43
REMARK   19  A    between atoms: _49  and  _51
REMARK   20  A    between atoms: _51  and  _52
REMARK   21  A    between atoms: _51  and  _54
REMARK   22  A    between atoms: _54  and  _55
REMARK   23  A    between atoms: _55  and  _56
REMARK   24  A    between atoms: _56  and  _57
REMARK   25  A    between atoms: _66  and  _68
REMARK   26  A    between atoms: _68  and  _69
REMARK   27  A    between atoms: _68  and  _71
REMARK   28  A    between atoms: _71  and  _72
REMARK   29  A    between atoms: _75  and  _77
REMARK   30  A    between atoms: _77  and  _78
REMARK   31  A    between atoms: _77  and  _80
REMARK   32  A    between atoms: _83  and  _85
REMARK   33  A    between atoms: _85  and  _86
REMARK   34  A    between atoms: _85  and  _88
REMARK   35  A    between atoms: _88  and  _89
REMARK   36  A    between atoms: _89  and  _90
REMARK   37  A    between atoms: _90  and  _91
REMARK   38  A    between atoms: _100  and  _102
REMARK   39  A    between atoms: _102  and  _103
REMARK   40  A    between atoms: _102  and  _105
REMARK   41  A    between atoms: _105  and  _106
REMARK   42  A    between atoms: _112  and  _114
REMARK   43  A    between atoms: _114  and  _115
REMARK   44  A    between atoms: _118  and  _120
REMARK   45  A    between atoms: _120  and  _121
REMARK   46  A    between atoms: _120  and  _123
REMARK   47  A    between atoms: _123  and  _124
REMARK   48  A    between atoms: _129  and  _131
REMARK   49  A    between atoms: _131  and  _132
REMARK   50  A    between atoms: _131  and  _134
REMARK   51  A    between atoms: _134  and  _135
REMARK   52  A    between atoms: _141  and  _143
REMARK   53  A    between atoms: _143  and  _144
REMARK   54  A    between atoms: _143  and  _146
REMARK   55  A    between atoms: _146  and  _147
REMARK   56  A    between atoms: _150  and  _152
REMARK   57  A    between atoms: _152  and  _153
REMARK   58  A    between atoms: _152  and  _155
REMARK   59  A    between atoms: _155  and  _156
REMARK   60  A    between atoms: _156  and  _157
REMARK   61  A    between atoms: _160  and  _162
REMARK   62  A    between atoms: _162  and  _163
REMARK   63  A    between atoms: _162  and  _165
REMARK   64  A    between atoms: _165  and  _166
REMARK   65  A    between atoms: _169  and  _171
REMARK   66  A    between atoms: _171  and  _172
REMARK   67  A    between atoms: _175  and  _177
REMARK   68  A    between atoms: _177  and  _178
REMARK   69  A    between atoms: _177  and  _180
REMARK   70  A    between atoms: _180  and  _181
REMARK   71  A    between atoms: _184  and  _186
REMARK   72  A    between atoms: _186  and  _187
REMARK   73  A    between atoms: _186  and  _189
REMARK   74  A    between atoms: _192  and  _194
REMARK   75  A    between atoms: _194  and  _195
REMARK   76  A    between atoms: _194  and  _197
REMARK   77  A    between atoms: _197  and  _198
REMARK   78  A    between atoms: _200  and  _202
REMARK   79  A    between atoms: _202  and  _203
REMARK   80  A    between atoms: _202  and  _205
REMARK   81  A    between atoms: _208  and  _210
REMARK   82  A    between atoms: _210  and  _211
REMARK   83  A    between atoms: _210  and  _213
REMARK   84  A    between atoms: _213  and  _214
REMARK   85  A    between atoms: _214  and  _215
REMARK   86  A    between atoms: _218  and  _220
REMARK   87  A    between atoms: _220  and  _221
REMARK   88  A    between atoms: _220  and  _223
REMARK   89  A    between atoms: _223  and  _224
REMARK   90  A    between atoms: _227  and  _229
REMARK   91  A    between atoms: _229  and  _230
REMARK   92  A    between atoms: _233  and  _235
REMARK   93  A    between atoms: _235  and  _236
REMARK   94  A    between atoms: _235  and  _238
REMARK   95  A    between atoms: _238  and  _239
REMARK   96  A    between atoms: _242  and  _244
REMARK   97  A    between atoms: _244  and  _245
REMARK   98  A    between atoms: _244  and  _247
REMARK   99  A    between atoms: _247  and  _248
REMARK  100  A    between atoms: _248  and  _249
REMARK  101  A    between atoms: _252  and  _254
REMARK  102  A    between atoms: _254  and  _255
REMARK  103  A    between atoms: _254  and  _257
REMARK  104  A    between atoms: _260  and  _262
REMARK  105  A    between atoms: _262  and  _263
REMARK  106  A    between atoms: _262  and  _265
REMARK  107  A    between atoms: _265  and  _266
REMARK  108  A    between atoms: _266  and  _267
REMARK  109  A    between atoms: _269  and  _271
REMARK  110  A    between atoms: _271  and  _272
REMARK  111  A    between atoms: _271  and  _274
REMARK  112  A    between atoms: _274  and  _275
REMARK  113  A    between atoms: _278  and  _280
REMARK  114  A    between atoms: _280  and  _281
REMARK  115  A    between atoms: _280  and  _283
REMARK  116  A    between atoms: _283  and  _284
REMARK  117  A    between atoms: _287  and  _289
REMARK  118  A    between atoms: _289  and  _290
REMARK  119  A    between atoms: _289  and  _292
REMARK  120  A    between atoms: _292  and  _293
REMARK  121  A    between atoms: _293  and  _294
REMARK  122  A    between atoms: _297  and  _299
REMARK  123  A    between atoms: _299  and  _300
REMARK  124  A    between atoms: _299  and  _302
REMARK  125  A    between atoms: _302  and  _303
REMARK  126  A    between atoms: _306  and  _308
REMARK  127  A    between atoms: _308  and  _309
REMARK  128  A    between atoms: _308  and  _311
REMARK  129  A    between atoms: _311  and  _312
REMARK  130  A    between atoms: _314  and  _316
REMARK  131  A    between atoms: _316  and  _317
REMARK  132  A    between atoms: _316  and  _319
REMARK  133  A    between atoms: _319  and  _320
REMARK  134  A    between atoms: _320  and  _321
REMARK  135  A    between atoms: _321  and  _322
REMARK  136  A    between atoms: _331  and  _333
REMARK  137  A    between atoms: _333  and  _334
REMARK  138  A    between atoms: _333  and  _336
REMARK  139  A    between atoms: _336  and  _337
REMARK  140  A    between atoms: _337  and  _338
REMARK  141  A    between atoms: _338  and  _339
REMARK  142  A    between atoms: _348  and  _350
REMARK  143  A    between atoms: _350  and  _351
REMARK  144  A    between atoms: _350  and  _353
REMARK  145  A    between atoms: _353  and  _354
REMARK  146  A    between atoms: _357  and  _359
REMARK  147  A    between atoms: _359  and  _360
REMARK  148  A    between atoms: _359  and  _362
REMARK  149  A    between atoms: _362  and  _363
REMARK  150  A    between atoms: _366  and  _368
REMARK  151  A    between atoms: _368  and  _369
REMARK  152  A    between atoms: _368  and  _371
REMARK  153  A    between atoms: _371  and  _372
REMARK  154  A    between atoms: _378  and  _380
REMARK  155  A    between atoms: _380  and  _381
REMARK  156  A    between atoms: _380  and  _383
REMARK  157  A    between atoms: _383  and  _384
REMARK  158  A    between atoms: _387  and  _389
REMARK  159  A    between atoms: _389  and  _390
REMARK  160  A    between atoms: _389  and  _392
REMARK  161  A    between atoms: _392  and  _393
REMARK  162  A    between atoms: _393  and  _394
REMARK  163  A    between atoms: _394  and  _395
REMARK  164  A    between atoms: _395  and  _396
REMARK  165  A    between atoms: _400  and  _402
REMARK  166  A    between atoms: _402  and  _403
REMARK  167  A    between atoms: _402  and  _405
REMARK  168  A    between atoms: _405  and  _406
REMARK  169  A    between atoms: _409  and  _411
REMARK  170  A    between atoms: _411  and  _412
REMARK  171  A    between atoms: _411  and  _414
REMARK  172  A    between atoms: _414  and  _415
REMARK  173  A    between atoms: _421  and  _423
REMARK  174  A    between atoms: _423  and  _424
REMARK  175  A    between atoms: _423  and  _426
REMARK  176  A    between atoms: _426  and  _427
REMARK  177  A    between atoms: _432  and  _433
REMARK  178  A    between atoms: _435  and  _437
REMARK  179  A    between atoms: _437  and  _438
REMARK  180  A    between atoms: _437  and  _440
REMARK  181  A    between atoms: _440  and  _441
REMARK  182  A    between atoms: _447  and  _449
REMARK  183  A    between atoms: _449  and  _450
REMARK  184  A    between atoms: _453  and  _455
REMARK  185  A    between atoms: _455  and  _456
REMARK  186  A    between atoms: _458  and  _460
REMARK  187  A    between atoms: _460  and  _461
REMARK  188  A    between atoms: _460  and  _463
REMARK  189  A    between atoms: _463  and  _464
REMARK  190  A    between atoms: _467  and  _469
REMARK  191  A    between atoms: _469  and  _470
REMARK  192  A    between atoms: _469  and  _472
REMARK  193  A    between atoms: _472  and  _473
REMARK  194  A    between atoms: _473  and  _474
REMARK  195  A    between atoms: _479  and  _481
REMARK  196  A    between atoms: _481  and  _482
REMARK  197  A    between atoms: _481  and  _484
REMARK  198  A    between atoms: _484  and  _485
REMARK  199  A    between atoms: _491  and  _493
REMARK  200  A    between atoms: _493  and  _494
REMARK  201  A    between atoms: _493  and  _496
REMARK  202  A    between atoms: _496  and  _497
REMARK  203  A    between atoms: _500  and  _502
REMARK  204  A    between atoms: _502  and  _503
REMARK  205  A    between atoms: _502  and  _505
REMARK  206  A    between atoms: _505  and  _506
REMARK  207  A    between atoms: _512  and  _514
REMARK  208  A    between atoms: _514  and  _515
REMARK  209  A    between atoms: _514  and  _517
REMARK  210  A    between atoms: _517  and  _518
REMARK  211  A    between atoms: _520  and  _522
REMARK  212  A    between atoms: _522  and  _523
REMARK  213  A    between atoms: _522  and  _525
REMARK  214  A    between atoms: _525  and  _526
REMARK  215  A    between atoms: _529  and  _531
REMARK  216  A    between atoms: _531  and  _532
REMARK  217  A    between atoms: _531  and  _534
REMARK  218  A    between atoms: _534  and  _535
REMARK  219  A    between atoms: _540  and  _542
REMARK  220  A    between atoms: _542  and  _543
REMARK  221  A    between atoms: _542  and  _545
REMARK  222  A    between atoms: _545  and  _546
REMARK  223  A    between atoms: _548  and  _550
REMARK  224  A    between atoms: _550  and  _551
REMARK  225  A    between atoms: _550  and  _553
REMARK  226  A    between atoms: _553  and  _554
REMARK  227  A    between atoms: _554  and  _555
REMARK  228  A    between atoms: _560  and  _562
REMARK  229  A    between atoms: _562  and  _563
REMARK  230  A    between atoms: _562  and  _565
REMARK  231  A    between atoms: _568  and  _570
REMARK  232  A    between atoms: _570  and  _571
REMARK  233  A    between atoms: _570  and  _573
REMARK  234  A    between atoms: _573  and  _574
REMARK  235  A    between atoms: _580  and  _582
REMARK  236  A    between atoms: _582  and  _583
REMARK  237  A    between atoms: _586  and  _588
REMARK  238  A    between atoms: _588  and  _589
REMARK  239  A    between atoms: _588  and  _591
REMARK  240  A    between atoms: _591  and  _592
REMARK  241  A    between atoms: _595  and  _597
REMARK  242  A    between atoms: _597  and  _598
REMARK  243  A    between atoms: _597  and  _600
REMARK  244  A    between atoms: _600  and  _601
REMARK  245  A    between atoms: _601  and  _602
REMARK  246  A    between atoms: _607  and  _609
REMARK  247  A    between atoms: _609  and  _610
REMARK  248  A    between atoms: _609  and  _612
REMARK  249  A    between atoms: _612  and  _613
REMARK  250  A    between atoms: _613  and  _614
REMARK  251  A    between atoms: _614  and  _615
REMARK  252  A    between atoms: _615  and  _616
REMARK  253  A    between atoms: _620  and  _622
REMARK  254  A    between atoms: _622  and  _623
REMARK  255  A    between atoms: _622  and  _625
REMARK  256  A    between atoms: _625  and  _626
REMARK  257  A    between atoms: _626  and  _627
REMARK  258  A    between atoms: _627  and  _628
REMARK  259  A    between atoms: _628  and  _629
REMARK  260  A    between atoms: _633  and  _635
REMARK  261  A    between atoms: _635  and  _636
REMARK  262  A    between atoms: _635  and  _638
REMARK  263  A    between atoms: _638  and  _639
REMARK  264  A    between atoms: _643  and  _644
REMARK  265  A    between atoms: _649  and  _651
REMARK  266  A    between atoms: _651  and  _652
REMARK  267  A    between atoms: _651  and  _654
REMARK  268  A    between atoms: _654  and  _655
REMARK  269  A    between atoms: _658  and  _660
REMARK  270  A    between atoms: _660  and  _661
REMARK  271  A    between atoms: _660  and  _663
REMARK  272  A    between atoms: _663  and  _664
REMARK  273  A    between atoms: _666  and  _668
REMARK  274  A    between atoms: _668  and  _669
REMARK  275  A    between atoms: _668  and  _671
REMARK  276  A    between atoms: _671  and  _672
REMARK                            x       y       z     vdW  Elec       q    Type
REMARK                         _______ _______ _______ _____ _____    ______ ____
ROOT
ATOM      1  C   GLU A   1      13.957 -19.204  28.323  0.00  0.00    +0.238 C 
ATOM      2  O   GLU A   1      13.171 -20.015  28.823  0.00  0.00    -0.274 OA
ATOM      3  N   ILE A   2      15.258 -19.440  28.198  0.00  0.00    -0.298 N 
ATOM      4  H   ILE A   2      15.866 -18.706  27.781  0.00  0.00    +0.150 HD
ENDROOT
BRANCH   1   5
ATOM      5  CA  GLU A   1      13.458 -17.864  27.809  0.00  0.00    +0.145 C 
BRANCH   5   6
ATOM      6  N   GLU A   1      14.364 -16.753  28.097  0.00  0.00    -0.238 NA
ATOM      7  H   GLU A   1      14.785 -16.234  27.300  0.00  0.00    +0.142 HD
ENDBRANCH   5   6
BRANCH   5   8
ATOM      8  CB  GLU A   1      13.237 -17.966  26.294  0.00  0.00    +0.038 C 
BRANCH   8   9
ATOM      9  CG  GLU A   1      12.407 -16.824  25.745  0.00  0.00    +0.116 C 
BRANCH   9  10
ATOM     10  CD  GLU A   1      12.234 -16.878  24.251  0.00  0.00    +0.365 C 
ATOM     11  OE2 GLU A   1      11.418 -16.081  23.736  0.00  0.00    -0.246 OA
ATOM     12  OE1 GLU A   1      12.911 -17.699  23.586  0.00  0.00    -0.246 OA
ENDBRANCH   9  10
ENDBRANCH   8   9
ENDBRANCH   5   8
ENDBRANCH   1   5
BRANCH   3  13
ATOM     13  CA  ILE A   2      15.863 -20.702  28.630  0.00  0.00    +0.137 C 
BRANCH  13  14
ATOM     14  C   ILE A   2      15.725 -20.851  30.138  0.00  0.00    +0.227 C 
ATOM     15  O   ILE A   2      15.313 -21.907  30.602  0.00  0.00    -0.286 OA
ENDBRANCH  13  14
BRANCH  13  16
ATOM     16  CB  ILE A   2      17.352 -20.823  28.180  0.00  0.00    +0.026 C 
ATOM     17  CG2 ILE A   2      17.984 -22.070  28.717  0.00  0.00    +0.002 C 
BRANCH  16  18
ATOM     18  CG1 ILE A   2      17.450 -20.911  26.664  0.00  0.00    +0.002 C 
ATOM     19  CD1 ILE A   2      18.775 -20.499  26.100  0.00  0.00    +0.000 C 
ENDBRANCH  16  18
ENDBRANCH  13  16
ENDBRANCH   3  13
TORSDOF 9
REMARK  Name = ../refined-set-2016/3ipu/3ipu_pocket.pdb
REMARK  276 active torsions:
REMARK  status: ('A' for Active; 'I' for Inactive)
REMARK    1  A    between atoms: _1  and  _3
REMARK    2  A    between atoms: _3  and  _4
REMARK    3  A    between atoms: _3  and  _6
REMARK    4  A    between atoms: _6  and  _7
REMARK    5  A    between atoms: _12  and  _14
REMARK    6  A    between atoms: _14  and  _15
REMARK    7  A    between atoms: _14  and  _17
REMARK    8  A    between atoms: _17  and  _18
REMARK    9  A    between atoms: _18  and  _19
REMARK   10  A    between atoms: _19  and  _20
REMARK   11  A    between atoms: _29  and  _31
REMARK   12  A    between atoms: _31  and  _32
REMARK   13  A    between atoms: _31  and  _34
REMARK   14  A    between atoms: _34  and  _35
REMARK   15  A    between atoms: _37  and  _39
REMARK   16  A    between atoms: _39  and  _40
REMARK   17  A    between atoms: _39  and  _42
REMARK   18  A    between atoms: _42  and  _43
REMARK   19  A    between atoms: _49  and  _51
REMARK   20  A    between atoms: _51  and  _52
REMARK   21  A    between atoms: _51  and  _54
REMARK   22  A    between atoms: _54  and  _55
REMARK   23  A    between atoms: _55  and  _56
REMARK   24  A    between atoms: _56  and  _57
REMARK   25  A    between atoms: _66  and  _68
REMARK   26  A    between atoms: _68  and  _69
REMARK   27  A    between atoms: _68  and  _71
REMARK   28  A    between atoms: _71  and  _72
REMARK   29  A    between atoms: _75  and  _77
REMARK   30  A    between atoms: _77  and  _78
REMARK   31  A    between atoms: _77  and  _80
REMARK   32  A    between atoms: _83  and  _85
REMARK   33  A    between atoms: _85  and  _86
REMARK   34  A    between atoms: _85  and  _88
REMARK   35  A    between atoms: _88  and  _89
REMARK   36  A    between atoms: _89  and  _90
REMARK   37  A    between atoms: _90  and  _91
REMARK   38  A    between atoms: _100  and  _102
REMARK   39  A    between atoms: _102  and  _103
REMARK   40  A    between atoms: _102  and  _105
REMARK   41  A    between atoms: _105  and  _106
REMARK   42  A    between atoms: _112  and  _114
REMARK   43  A    between atoms: _114  and  _115
REMARK   44  A    between atoms: _118  and  _120
REMARK   45  A    between atoms: _120  and  _121
REMARK   46  A    between atoms: _120  and  _123
REMARK   47  A    between atoms: _123  and  _124
REMARK   48  A    between atoms: _129  and  _131
REMARK   49  A    between atoms: _131  and  _132
REMARK   50  A    between atoms: _131  and  _134
REMARK   51  A    between atoms: _134  and  _135
REMARK   52  A    between atoms: _141  and  _143
REMARK   53  A    between atoms: _143  and  _144
REMARK   54  A    between atoms: _143  and  _146
REMARK   55  A    between atoms: _146  and  _147
REMARK   56  A    between atoms: _150  and  _152
REMARK   57  A    between atoms: _152  and  _153
REMARK   58  A    between atoms: _152  and  _155
REMARK   59  A    between atoms: _155  and  _156
REMARK   60  A    between atoms: _156  and  _157
REMARK   61  A    between atoms: _160  and  _162
REMARK   62  A    between atoms: _162  and  _163
REMARK   63  A    between atoms: _162  and  _165
REMARK   64  A    between atoms: _165  and  _166
REMARK   65  A    between atoms: _169  and  _171
REMARK   66  A    between atoms: _171  and  _172
REMARK   67  A    between atoms: _175  and  _177
REMARK   68  A    between atoms: _177  and  _178
REMARK   69  A    between atoms: _177  and  _180
REMARK   70  A    between atoms: _180  and  _181
REMARK   71  A    between atoms: _184  and  _186
REMARK   72  A    between atoms: _186  and  _187
REMARK   73  A    between atoms: _186  and  _189
REMARK   74  A    between atoms: _192  and  _194
REMARK   75  A    between atoms: _194  and  _195
REMARK   76  A    between atoms: _194  and  _197
REMARK   77  A    between atoms: _197  and  _198
REMARK   78  A    between atoms: _200  and  _202
REMARK   79  A    between atoms: _202  and  _203
REMARK   80  A    between atoms: _202  and  _205
REMARK   81  A    between atoms: _208  and  _210
REMARK   82  A    between atoms: _210  and  _211
REMARK   83  A    between atoms: _210  and  _213
REMARK   84  A    between atoms: _213  and  _214
REMARK   85  A    between atoms: _214  and  _215
REMARK   86  A    between atoms: _218  and  _220
REMARK   87  A    between atoms: _220  and  _221
REMARK   88  A    between atoms: _220  and  _223
REMARK   89  A    between atoms: _223  and  _224
REMARK   90  A    between atoms: _227  and  _229
REMARK   91  A    between atoms: _229  and  _230
REMARK   92  A    between atoms: _233  and  _235
REMARK   93  A    between atoms: _235  and  _236
REMARK   94  A    between atoms: _235  and  _238
REMARK   95  A    between atoms: _238  and  _239
REMARK   96  A    between atoms: _242  and  _244
REMARK   97  A    between atoms: _244  and  _245
REMARK   98  A    between atoms: _244  and  _247
REMARK   99  A    between atoms: _247  and  _248
REMARK  100  A    between atoms: _248  and  _249
REMARK  101  A    between atoms: _252  and  _254
REMARK  102  A    between atoms: _254  and  _255
REMARK  103  A    between atoms: _254  and  _257
REMARK  104  A    between atoms: _260  and  _262
REMARK  105  A    between atoms: _262  and  _263
REMARK  106  A    between atoms: _262  and  _265
REMARK  107  A    between atoms: _265  and  _266
REMARK  108  A    between atoms: _266  and  _267
REMARK  109  A    between atoms: _269  and  _271
REMARK  110  A    between atoms: _271  and  _272
REMARK  111  A    between atoms: _271  and  _274
REMARK  112  A    between atoms: _274  and  _275
REMARK  113  A    between atoms: _278  and  _280
REMARK  114  A    between atoms: _280  and  _281
REMARK  115  A    between atoms: _280  and  _283
REMARK  116  A    between atoms: _283  and  _284
REMARK  117  A    between atoms: _287  and  _289
REMARK  118  A    between atoms: _289  and  _290
REMARK  119  A    between atoms: _289  and  _292
REMARK  120  A    between atoms: _292  and  _293
REMARK  121  A    between atoms: _293  and  _294
REMARK  122  A    between atoms: _297  and  _299
REMARK  123  A    between atoms: _299  and  _300
REMARK  124  A    between atoms: _299  and  _302
REMARK  125  A    between atoms: _302  and  _303
REMARK  126  A    between atoms: _306  and  _308
REMARK  127  A    between atoms: _308  and  _309
REMARK  128  A    between atoms: _308  and  _311
REMARK  129  A    between atoms: _311  and  _312
REMARK  130  A    between atoms: _314  and  _316
REMARK  131  A    between atoms: _316  and  _317
REMARK  132  A    between atoms: _316  and  _319
REMARK  133  A    between atoms: _319  and  _320
REMARK  134  A    between atoms: _320  and  _321
REMARK  135  A    between atoms: _321  and  _322
REMARK  136  A    between atoms: _331  and  _333
REMARK  137  A    between atoms: _333  and  _334
REMARK  138  A    between atoms: _333  and  _336
REMARK  139  A    between atoms: _336  and  _337
REMARK  140  A    between atoms: _337  and  _338
REMARK  141  A    between atoms: _338  and  _339
REMARK  142  A    between atoms: _348  and  _350
REMARK  143  A    between atoms: _350  and  _351
REMARK  144  A    between atoms: _350  and  _353
REMARK  145  A    between atoms: _353  and  _354
REMARK  146  A    between atoms: _357  and  _359
REMARK  147  A    between atoms: _359  and  _360
REMARK  148  A    between atoms: _359  and  _362
REMARK  149  A    between atoms: _362  and  _363
REMARK  150  A    between atoms: _366  and  _368
REMARK  151  A    between atoms: _368  and  _369
REMARK  152  A    between atoms: _368  and  _371
REMARK  153  A    between atoms: _371  and  _372
REMARK  154  A    between atoms: _378  and  _380
REMARK  155  A    between atoms: _380  and  _381
REMARK  156  A    between atoms: _380  and  _383
REMARK  157  A    between atoms: _383  and  _384
REMARK  158  A    between atoms: _387  and  _389
REMARK  159  A    between atoms: _389  and  _390
REMARK  160  A    between atoms: _389  and  _392
REMARK  161  A    between atoms: _392  and  _393
REMARK  162  A    between atoms: _393  and  _394
REMARK  163  A    between atoms: _394  and  _395
REMARK  164  A    between atoms: _395  and  _396
REMARK  165  A    between atoms: _400  and  _402
REMARK  166  A    between atoms: _402  and  _403
REMARK  167  A    between atoms: _402  and  _405
REMARK  168  A    between atoms: _405  and  _406
REMARK  169  A    between atoms: _409  and  _411
REMARK  170  A    between atoms: _411  and  _412
REMARK  171  A    between atoms: _411  and  _414
REMARK  172  A    between atoms: _414  and  _415
REMARK  173  A    between atoms: _421  and  _423
REMARK  174  A    between atoms: _423  and  _424
REMARK  175  A    between atoms: _423  and  _426
REMARK  176  A    between atoms: _426  and  _427
REMARK  177  A    between atoms: _432  and  _433
REMARK  178  A    between atoms: _435  and  _437
REMARK  179  A    between atoms: _437  and  _438
REMARK  180  A    between atoms: _437  and  _440
REMARK  181  A    between atoms: _440  and  _441
REMARK  182  A    between atoms: _447  and  _449
REMARK  183  A    between atoms: _449  and  _450
REMARK  184  A    between atoms: _453  and  _455
REMARK  185  A    between atoms: _455  and  _456
REMARK  186  A    between atoms: _458  and  _460
REMARK  187  A    between atoms: _460  and  _461
REMARK  188  A    between atoms: _460  and  _463
REMARK  189  A    between atoms: _463  and  _464
REMARK  190  A    between atoms: _467  and  _469
REMARK  191  A    between atoms: _469  and  _470
REMARK  192  A    between atoms: _469  and  _472
REMARK  193  A    between atoms: _472  and  _473
REMARK  194  A    between atoms: _473  and  _474
REMARK  195  A    between atoms: _479  and  _481
REMARK  196  A    between atoms: _481  and  _482
REMARK  197  A    between atoms: _481  and  _484
REMARK  198  A    between atoms: _484  and  _485
REMARK  199  A    between atoms: _491  and  _493
REMARK  200  A    between atoms: _493  and  _494
REMARK  201  A    between atoms: _493  and  _496
REMARK  202  A    between atoms: _496  and  _497
REMARK  203  A    between atoms: _500  and  _502
REMARK  204  A    between atoms: _502  and  _503
REMARK  205  A    between atoms: _502  and  _505
REMARK  206  A    between atoms: _505  and  _506
REMARK  207  A    between atoms: _512  and  _514
REMARK  208  A    between atoms: _514  and  _515
REMARK  209  A    between atoms: _514  and  _517
REMARK  210  A    between atoms: _517  and  _518
REMARK  211  A    between atoms: _520  and  _522
REMARK  212  A    between atoms: _522  and  _523
REMARK  213  A    between atoms: _522  and  _525
REMARK  214  A    between atoms: _525  and  _526
REMARK  215  A    between atoms: _529  and  _531
REMARK  216  A    between atoms: _531  and  _532
REMARK  217  A    between atoms: _531  and  _534
REMARK  218  A    between atoms: _534  and  _535
REMARK  219  A    between atoms: _540  and  _542
REMARK  220  A    between atoms: _542  and  _543
REMARK  221  A    between atoms: _542  and  _545
REMARK  222  A    between atoms: _545  and  _546
REMARK  223  A    between atoms: _548  and  _550
REMARK  224  A    between atoms: _550  and  _551
REMARK  225  A    between atoms: _550  and  _553
REMARK  226  A    between atoms: _553  and  _554
REMARK  227  A    between atoms: _554  and  _555
REMARK  228  A    between atoms: _560  and  _562
REMARK  229  A    between atoms: _562  and  _563
REMARK  230  A    between atoms: _562  and  _565
REMARK  231  A    between atoms: _568  and  _570
REMARK  232  A    between atoms: _570  and  _571
REMARK  233  A    between atoms: _570  and  _573
REMARK  234  A    between atoms: _573  and  _574
REMARK  235  A    between atoms: _580  and  _582
REMARK  236  A    between atoms: _582  and  _583
REMARK  237  A    between atoms: _586  and  _588
REMARK  238  A    between atoms: _588  and  _589
REMARK  239  A    between atoms: _588  and  _591
REMARK  240  A    between atoms: _591  and  _592
REMARK  241  A    between atoms: _595  and  _597
REMARK  242  A    between atoms: _597  and  _598
REMARK  243  A    between atoms: _597  and  _600
REMARK  244  A    between atoms: _600  and  _601
REMARK  245  A    between atoms: _601  and  _602
REMARK  246  A    between atoms: _607  and  _609
REMARK  247  A    between atoms: _609  and  _610
REMARK  248  A    between atoms: _609  and  _612
REMARK  249  A    between atoms: _612  and  _613
REMARK  250  A    between atoms: _613  and  _614
REMARK  251  A    between atoms: _614  and  _615
REMARK  252  A    between atoms: _615  and  _616
REMARK  253  A    between atoms: _620  and  _622
REMARK  254  A    between atoms: _622  and  _623
REMARK  255  A    between atoms: _622  and  _625
REMARK  256  A    between atoms: _625  and  _626
REMARK  257  A    between atoms: _626  and  _627
REMARK  258  A    between atoms: _627  and  _628
REMARK  259  A    between atoms: _628  and  _629
REMARK  260  A    between atoms: _633  and  _635
REMARK  261  A    between atoms: _635  and  _636
REMARK  262  A    between atoms: _635  and  _638
REMARK  263  A    between atoms: _638  and  _639
REMARK  264  A    between atoms: _643  and  _644
REMARK  265  A    between atoms: _649  and  _651
REMARK  266  A    between atoms: _651  and  _652
REMARK  267  A    between atoms: _651  and  _654
REMARK  268  A    between atoms: _654  and  _655
REMARK  269  A    between atoms: _658  and  _660
REMARK  270  A    between atoms: _660  and  _661
REMARK  271  A    between atoms: _660  and  _663
REMARK  272  A    between atoms: _663  and  _664
REMARK  273  A    between atoms: _666  and  _668
REMARK  274  A    between atoms: _668  and  _669
REMARK  275  A    between atoms: _668  and  _671
REMARK  276  A    between atoms: _671  and  _672
REMARK                            x       y       z     vdW  Elec       q    Type
REMARK                         _______ _______ _______ _____ _____    ______ ____
ROOT
ATOM      1  C   LEU A   7      17.831 -25.589  18.756  0.00  0.00    +0.241 C 
ATOM      2  N   GLU A   8      17.531 -24.464  19.406  0.00  0.00    -0.297 N 
ATOM      3  H   GLU A   8      18.053 -24.232  20.275  0.00  0.00    +0.150 HD
ATOM      4  O   LEU A   7      17.256 -25.947  17.735  0.00  0.00    -0.273 OA
ENDROOT
BRANCH   2   5
ATOM      5  CA  GLU A   8      16.484 -23.538  18.935  0.00  0.00    +0.149 C 
BRANCH   5   6
ATOM      6  C   GLU A   8      16.817 -22.952  17.575  0.00  0.00    +0.241 C 
ATOM      7  N   THR A   9      18.098 -22.685  17.350  0.00  0.00    -0.295 N 
ATOM      8  H   THR A   9      18.779 -22.782  18.130  0.00  0.00    +0.150 HD
ATOM      9  O   GLU A   8      15.937 -22.711  16.759  0.00  0.00    -0.273 OA
BRANCH   7  10
ATOM     10  CA  THR A   9      18.577 -22.260  16.043  0.00  0.00    +0.176 C 
BRANCH  10  11
ATOM     11  C   THR A   9      18.261 -23.307  14.965  0.00  0.00    +0.243 C 
ATOM     12  N   SER A  10      18.545 -24.581  15.241  0.00  0.00    -0.295 N 
ATOM     13  H   SER A  10      18.943 -24.821  16.172  0.00  0.00    +0.150 HD
ATOM     14  O   THR A   9      17.747 -22.960  13.907  0.00  0.00    -0.273 OA
BRANCH  12  15
ATOM     15  CA  SER A  10      18.308 -25.668  14.253  0.00  0.00    +0.178 C 
BRANCH  15  16
ATOM     16  C   SER A  10      16.816 -25.927  14.001  0.00  0.00    +0.243 C 
ATOM     17  N   ARG A  11      16.005 -25.619  14.999  0.00  0.00    -0.297 N 
ATOM     18  H   ARG A  11      16.426 -25.344  15.909  0.00  0.00    +0.150 HD
ATOM     19  O   SER A  10      16.411 -26.376  12.930  0.00  0.00    -0.273 OA
BRANCH  17  20
ATOM     20  CA  ARG A  11      14.548 -25.645  14.890  0.00  0.00    +0.149 C 
BRANCH  20  21
ATOM     21  C   ARG A  11      13.989 -24.648  13.856  0.00  0.00    +0.241 C 
ATOM     22  N   ARG A  12      14.720 -23.559  13.633  0.00  0.00    -0.298 N 
ATOM     23  H   ARG A  12      15.655 -23.486  14.083  0.00  0.00    +0.150 HD
ATOM     24  O   ARG A  11      12.909 -24.865  13.280  0.00  0.00    -0.273 OA
BRANCH  22  25
ATOM     25  CA  ARG A  12      14.264 -22.459  12.780  0.00  0.00    +0.137 C 
BRANCH  25  26
ATOM     26  C   ARG A  12      15.002 -22.413  11.448  0.00  0.00    +0.227 C 
ATOM     27  O   ARG A  12      15.026 -21.394  10.776  0.00  0.00    -0.286 OA
ENDBRANCH  25  26
BRANCH  25  28
ATOM     28  CB  ARG A  12      14.464 -21.148  13.534  0.00  0.00    +0.031 C 
BRANCH  28  29
ATOM     29  CG  ARG A  12      13.645 -21.100  14.792  0.00  0.00    +0.045 C 
BRANCH  29  30
ATOM     30  CD  ARG A  12      13.962 -19.921  15.682  0.00  0.00    +0.174 C 
BRANCH  30  31
ATOM     31  NE  ARG A  12      12.825 -19.666  16.564  0.00  0.00    -0.265 N 
ATOM     32  CZ  ARG A  12      12.455 -20.451  17.579  0.00  0.00    +0.342 C 
ATOM     33  NH2 ARG A  12      11.387 -20.136  18.309  0.00  0.00    -0.292 N 
ATOM     34 HH21 ARG A  12      11.099 -20.747  19.099  0.00  0.00    +0.255 HD
ATOM     35 HH22 ARG A  12      10.841 -19.279  18.089  0.00  0.00    +0.255 HD
ATOM     36  NH1 ARG A  12      13.144 -21.548  17.892  0.00  0.00    -0.292 N 
ATOM     37 HH11 ARG A  12      12.838 -22.145  18.687  0.00  0.00    +0.255 HD
ATOM     38 HH12 ARG A  12      13.988 -21.807  17.342  0.00  0.00    +0.255 HD
ATOM     39  HE  ARG A  12      12.262 -18.809  16.388  0.00  0.00    +0.259 HD
ENDBRANCH  30  31
ENDBRANCH  29  30
ENDBRANCH  28  29
ENDBRANCH  25  28
ENDBRANCH  22  25
ENDBRANCH  20  21
BRANCH  20  40
ATOM     40  CB  ARG A  11      13.993 -25.307  16.267  0.00  0.00    +0.033 C 
BRANCH  40  41
ATOM     41  CG  ARG A  11      12.510 -25.515  16.492  0.00  0.00    +0.045 C 
BRANCH  41  42
ATOM     42  CD  ARG A  11      12.258 -25.135  17.948  0.00  0.00    +0.174 C 
BRANCH  42  43
ATOM     43  NE  ARG A  11      10.990 -25.626  18.461  0.00  0.00    -0.265 N 
ATOM     44  CZ  ARG A  11      10.709 -25.796  19.743  0.00  0.00    +0.342 C 
ATOM     45  NH2 ARG A  11      11.606 -25.515  20.687  0.00  0.00    -0.292 N 
ATOM     46 HH21 ARG A  11      11.367 -25.655  21.689  0.00  0.00    +0.255 HD
ATOM     47 HH22 ARG A  11      12.545 -25.156  20.421  0.00  0.00    +0.255 HD
ATOM     48  NH1 ARG A  11       9.517 -26.257  20.083  0.00  0.00    -0.292 N 
ATOM     49 HH11 ARG A  11       9.280 -26.396  21.086  0.00  0.00    +0.255 HD
ATOM     50 HH12 ARG A  11       8.817 -26.480  19.347  0.00  0.00    +0.255 HD
ATOM     51  HE  ARG A  11      10.249 -25.861  17.770  0.00  0.00    +0.259 HD
ENDBRANCH  42  43
ENDBRANCH  41  42
ENDBRANCH  40  41
ENDBRANCH  20  40
ENDBRANCH  17  20
ENDBRANCH  15  16
BRANCH  15  52
ATOM     52  CB  SER A  10      19.013 -26.954  14.675  0.00  0.00    +0.166 C 
BRANCH  52  53
ATOM     53  OG  SER A  10      18.427 -27.502  15.827  0.00  0.00    -0.380 OA
ATOM     54  H   SER A  10      18.489 -26.850  16.569  0.00  0.00    +0.211 HD
ENDBRANCH  52  53
ENDBRANCH  15  52
ENDBRANCH  12  15
ENDBRANCH  10  11
BRANCH  10  55
ATOM     55  CB  THR A   9      20.106 -21.957  16.070  0.00  0.00    +0.137 C 
ATOM     56  CG2 THR A   9      20.648 -21.681  14.658  0.00  0.00    +0.034 C 
BRANCH  55  57
ATOM     57  OG1 THR A   9      20.366 -20.832  16.920  0.00  0.00    -0.382 OA
ATOM     58  HG1 THR A   9      20.057 -21.035  17.838  0.00  0.00    +0.210 HD
ENDBRANCH  55  57
ENDBRANCH  10  55
ENDBRANCH   7  10
ENDBRANCH   5   6
BRANCH   5  59
ATOM     59  CB  GLU A   8      16.295 -22.363  19.902  0.00  0.00    +0.041 C 
BRANCH  59  60
ATOM     60  CG  GLU A   8      15.663 -22.668  21.247  0.00  0.00    +0.116 C 
BRANCH  60  61
ATOM     61  CD  GLU A   8      14.212 -23.109  21.158  0.00  0.00    +0.365 C 
ATOM     62  OE2 GLU A   8      13.598 -23.338  22.223  0.00  0.00    -0.246 OA
ATOM     63  OE1 GLU A   8      13.684 -23.245  20.042  0.00  0.00    -0.246 OA
ENDBRANCH  60  61
ENDBRANCH  59  60
ENDBRANCH   5  59
ENDBRANCH   2   5
BRANCH   1  64
ATOM     64  CA  LEU A   7      18.962 -26.439  19.316  0.00  0.00    +0.149 C 
BRANCH  64  66
ATOM     65  C   LEU A   6      20.771 -24.953  18.631  0.00  0.00    +0.241 C 
ATOM     66  N   LEU A   7      20.154 -25.631  19.593  0.00  0.00    -0.297 N 
ATOM     67  H   LEU A   7      20.525 -25.588  20.564  0.00  0.00    +0.150 HD
ATOM     68  O   LEU A   6      20.430 -25.023  17.448  0.00  0.00    -0.273 OA
BRANCH  65  69
ATOM     69  CA  LEU A   6      21.922 -24.028  19.065  0.00  0.00    +0.149 C 
BRANCH  69  71
ATOM     70  C   MET A   5      20.593 -22.469  20.404  0.00  0.00    +0.241 C 
ATOM     71  N   LEU A   6      21.590 -23.349  20.325  0.00  0.00    -0.297 N 
ATOM     72  H   LEU A   6      22.148 -23.561  21.177  0.00  0.00    +0.150 HD
ATOM     73  O   MET A   5      19.963 -22.083  19.414  0.00  0.00    -0.273 OA
BRANCH  70  74
ATOM     74  CA  MET A   5      20.296 -21.882  21.793  0.00  0.00    +0.149 C 
BRANCH  74  76
ATOM     75  C   VAL A   4      19.548 -23.921  22.904  0.00  0.00    +0.241 C 
ATOM     76  N   MET A   5      20.359 -22.867  22.871  0.00  0.00    -0.297 N 
ATOM     77  H   MET A   5      21.056 -22.741  23.632  0.00  0.00    +0.150 HD
ATOM     78  O   VAL A   4      18.688 -24.144  22.037  0.00  0.00    -0.273 OA
BRANCH  75  79
ATOM     79  CA  VAL A   4      19.766 -24.910  24.051  0.00  0.00    +0.149 C 
BRANCH  79  81
ATOM     80  C   GLU A   3      21.918 -25.711  23.282  0.00  0.00    +0.241 C 
ATOM     81  N   VAL A   4      21.190 -25.138  24.233  0.00  0.00    -0.297 N 
ATOM     82  H   VAL A   4      21.646 -24.848  25.122  0.00  0.00    +0.150 HD
ATOM     83  O   GLU A   3      21.431 -26.137  22.240  0.00  0.00    -0.273 OA
BRANCH  80  84
ATOM     84  CA  GLU A   3      23.416 -25.824  23.546  0.00  0.00    +0.149 C 
BRANCH  84  86
ATOM     85  C   ILE A   2      24.036 -23.480  23.499  0.00  0.00    +0.241 C 
ATOM     86  N   GLU A   3      23.952 -24.620  24.175  0.00  0.00    -0.297 N 
ATOM     87  H   GLU A   3      24.272 -24.656  25.164  0.00  0.00    +0.150 HD
ATOM     88  O   ILE A   2      23.635 -23.360  22.340  0.00  0.00    -0.273 OA
BRANCH  85  89
ATOM     89  CA  ILE A   2      24.601 -22.286  24.243  0.00  0.00    +0.148 C 
BRANCH  89  91
ATOM     90  C   ALA A   1      22.896 -22.190  25.960  0.00  0.00    +0.238 C 
ATOM     91  N   ILE A   2      24.181 -22.298  25.650  0.00  0.00    -0.297 N 
ATOM     92  H   ILE A   2      24.891 -22.391  26.404  0.00  0.00    +0.150 HD
ATOM     93  O   ALA A   1      22.022 -22.090  25.106  0.00  0.00    -0.274 OA
BRANCH  90  94
ATOM     94  CA  ALA A   1      22.524 -22.199  27.436  0.00  0.00    +0.145 C 
ATOM     95  CB  ALA A   1      22.805 -20.839  28.080  0.00  0.00    +0.028 C 
BRANCH  94  96
ATOM     96  N   ALA A   1      23.178 -23.272  28.170  0.00  0.00    -0.238 NA
ATOM     97  H   ALA A   1      23.690 -23.053  29.048  0.00  0.00    +0.142 HD
ENDBRANCH  94  96
ENDBRANCH  90  94
ENDBRANCH  89  91
BRANCH  89  98
ATOM     98  CB  ILE A   2      26.158 -22.209  24.051  0.00  0.00    +0.027 C 
ATOM     99  CG2 ILE A   2      26.888 -23.380  24.716  0.00  0.00    +0.002 C 
BRANCH  98 100
ATOM    100  CG1 ILE A   2      26.491 -22.093  22.550  0.00  0.00    +0.002 C 
ATOM    101  CD1 ILE A   2      25.874 -20.843  21.874  0.00  0.00    +0.000 C 
ENDBRANCH  98 100
ENDBRANCH  89  98
ENDBRANCH  85  89
ENDBRANCH  84  86
BRANCH  84 102
ATOM    102  CB  GLU A   3      23.730 -27.072  24.390  0.00  0.00    +0.041 C 
BRANCH 102 103
ATOM    103  CG  GLU A   3      25.175 -27.527  24.261  0.00  0.00    +0.116 C 
BRANCH 103 104
ATOM    104  CD  GLU A   3      25.512 -28.690  25.171  0.00  0.00    +0.365 C 
ATOM    105  OE2 GLU A   3      26.616 -28.693  25.745  0.00  0.00    -0.246 OA
ATOM    106  OE1 GLU A   3      24.671 -29.591  25.331  0.00  0.00    -0.246 OA
ENDBRANCH 103 104
ENDBRANCH 102 103
ENDBRANCH  84 102
ENDBRANCH  80  84
ENDBRANCH  79  81
BRANCH  79 107
ATOM    107  CB  VAL A   4      19.088 -24.448  25.349  0.00  0.00    +0.027 C 
ATOM    108  CG2 VAL A   4      19.202 -25.551  26.424  0.00  0.00    +0.002 C 
ATOM    109  CG1 VAL A   4      17.608 -24.064  25.097  0.00  0.00    +0.002 C 
ENDBRANCH  79 107
ENDBRANCH  75  79
ENDBRANCH  74  76
BRANCH  74 110
ATOM    110  CB  MET A   5      21.294 -20.761  22.043  0.00  0.00    +0.041 C 
BRANCH 110 111
ATOM    111  CG  MET A   5      20.733 -19.508  22.643  0.00  0.00    +0.060 C 
BRANCH 111 112
ATOM    112  SD  MET A   5      22.115 -18.371  22.968  0.00  0.00    -0.139 S 
ATOM    113  CE  MET A   5      22.443 -18.858  24.654  0.00  0.00    +0.069 C 
ENDBRANCH 111 112
ENDBRANCH 110 111
ENDBRANCH  74 110
ENDBRANCH  70  74
ENDBRANCH  69  71
BRANCH  69 114
ATOM    114  CB  LEU A   6      23.254 -24.787  19.176  0.00  0.00    +0.029 C 
BRANCH 114 115
ATOM    115  CG  LEU A   6      24.511 -23.906  19.190  0.00  0.00    +0.002 C 
ATOM    116  CD2 LEU A   6      25.706 -24.633  19.764  0.00  0.00    +0.000 C 
ATOM    117  CD1 LEU A   6      24.847 -23.392  17.810  0.00  0.00    +0.000 C 
ENDBRANCH 114 115
ENDBRANCH  69 114
ENDBRANCH  65  69
ENDBRANCH  64  66
BRANCH  64 118
ATOM    118  CB  LEU A   7      18.496 -27.190  20.569  0.00  0.00    +0.029 C 
BRANCH 118 119
ATOM    119  CG  LEU A   7      19.295 -28.440  20.942  0.00  0.00    +0.002 C 
ATOM    120  CD2 LEU A   7      18.901 -28.923  22.340  0.00  0.00    +0.000 C 
ATOM    121  CD1 LEU A   7      19.072 -29.532  19.892  0.00  0.00    +0.000 C 
ENDBRANCH 118 119
ENDBRANCH  64 118
ENDBRANCH   1  64
TORSDOF 52
REMARK  Name = ../refined-set-2016/3ipu/3ipu_pocket.pdb
REMARK  276 active torsions:
REMARK  status: ('A' for Active; 'I' for Inactive)
REMARK    1  A    between atoms: _1  and  _3
REMARK    2  A    between atoms: _3  and  _4
REMARK    3  A    between atoms: _3  and  _6
REMARK    4  A    between atoms: _6  and  _7
REMARK    5  A    between atoms: _12  and  _14
REMARK    6  A    between atoms: _14  and  _15
REMARK    7  A    between atoms: _14  and  _17
REMARK    8  A    between atoms: _17  and  _18
REMARK    9  A    between atoms: _18  and  _19
REMARK   10  A    between atoms: _19  and  _20
REMARK   11  A    between atoms: _29  and  _31
REMARK   12  A    between atoms: _31  and  _32
REMARK   13  A    between atoms: _31  and  _34
REMARK   14  A    between atoms: _34  and  _35
REMARK   15  A    between atoms: _37  and  _39
REMARK   16  A    between atoms: _39  and  _40
REMARK   17  A    between atoms: _39  and  _42
REMARK   18  A    between atoms: _42  and  _43
REMARK   19  A    between atoms: _49  and  _51
REMARK   20  A    between atoms: _51  and  _52
REMARK   21  A    between atoms: _51  and  _54
REMARK   22  A    between atoms: _54  and  _55
REMARK   23  A    between atoms: _55  and  _56
REMARK   24  A    between atoms: _56  and  _57
REMARK   25  A    between atoms: _66  and  _68
REMARK   26  A    between atoms: _68  and  _69
REMARK   27  A    between atoms: _68  and  _71
REMARK   28  A    between atoms: _71  and  _72
REMARK   29  A    between atoms: _75  and  _77
REMARK   30  A    between atoms: _77  and  _78
REMARK   31  A    between atoms: _77  and  _80
REMARK   32  A    between atoms: _83  and  _85
REMARK   33  A    between atoms: _85  and  _86
REMARK   34  A    between atoms: _85  and  _88
REMARK   35  A    between atoms: _88  and  _89
REMARK   36  A    between atoms: _89  and  _90
REMARK   37  A    between atoms: _90  and  _91
REMARK   38  A    between atoms: _100  and  _102
REMARK   39  A    between atoms: _102  and  _103
REMARK   40  A    between atoms: _102  and  _105
REMARK   41  A    between atoms: _105  and  _106
REMARK   42  A    between atoms: _112  and  _114
REMARK   43  A    between atoms: _114  and  _115
REMARK   44  A    between atoms: _118  and  _120
REMARK   45  A    between atoms: _120  and  _121
REMARK   46  A    between atoms: _120  and  _123
REMARK   47  A    between atoms: _123  and  _124
REMARK   48  A    between atoms: _129  and  _131
REMARK   49  A    between atoms: _131  and  _132
REMARK   50  A    between atoms: _131  and  _134
REMARK   51  A    between atoms: _134  and  _135
REMARK   52  A    between atoms: _141  and  _143
REMARK   53  A    between atoms: _143  and  _144
REMARK   54  A    between atoms: _143  and  _146
REMARK   55  A    between atoms: _146  and  _147
REMARK   56  A    between atoms: _150  and  _152
REMARK   57  A    between atoms: _152  and  _153
REMARK   58  A    between atoms: _152  and  _155
REMARK   59  A    between atoms: _155  and  _156
REMARK   60  A    between atoms: _156  and  _157
REMARK   61  A    between atoms: _160  and  _162
REMARK   62  A    between atoms: _162  and  _163
REMARK   63  A    between atoms: _162  and  _165
REMARK   64  A    between atoms: _165  and  _166
REMARK   65  A    between atoms: _169  and  _171
REMARK   66  A    between atoms: _171  and  _172
REMARK   67  A    between atoms: _175  and  _177
REMARK   68  A    between atoms: _177  and  _178
REMARK   69  A    between atoms: _177  and  _180
REMARK   70  A    between atoms: _180  and  _181
REMARK   71  A    between atoms: _184  and  _186
REMARK   72  A    between atoms: _186  and  _187
REMARK   73  A    between atoms: _186  and  _189
REMARK   74  A    between atoms: _192  and  _194
REMARK   75  A    between atoms: _194  and  _195
REMARK   76  A    between atoms: _194  and  _197
REMARK   77  A    between atoms: _197  and  _198
REMARK   78  A    between atoms: _200  and  _202
REMARK   79  A    between atoms: _202  and  _203
REMARK   80  A    between atoms: _202  and  _205
REMARK   81  A    between atoms: _208  and  _210
REMARK   82  A    between atoms: _210  and  _211
REMARK   83  A    between atoms: _210  and  _213
REMARK   84  A    between atoms: _213  and  _214
REMARK   85  A    between atoms: _214  and  _215
REMARK   86  A    between atoms: _218  and  _220
REMARK   87  A    between atoms: _220  and  _221
REMARK   88  A    between atoms: _220  and  _223
REMARK   89  A    between atoms: _223  and  _224
REMARK   90  A    between atoms: _227  and  _229
REMARK   91  A    between atoms: _229  and  _230
REMARK   92  A    between atoms: _233  and  _235
REMARK   93  A    between atoms: _235  and  _236
REMARK   94  A    between atoms: _235  and  _238
REMARK   95  A    between atoms: _238  and  _239
REMARK   96  A    between atoms: _242  and  _244
REMARK   97  A    between atoms: _244  and  _245
REMARK   98  A    between atoms: _244  and  _247
REMARK   99  A    between atoms: _247  and  _248
REMARK  100  A    between atoms: _248  and  _249
REMARK  101  A    between atoms: _252  and  _254
REMARK  102  A    between atoms: _254  and  _255
REMARK  103  A    between atoms: _254  and  _257
REMARK  104  A    between atoms: _260  and  _262
REMARK  105  A    between atoms: _262  and  _263
REMARK  106  A    between atoms: _262  and  _265
REMARK  107  A    between atoms: _265  and  _266
REMARK  108  A    between atoms: _266  and  _267
REMARK  109  A    between atoms: _269  and  _271
REMARK  110  A    between atoms: _271  and  _272
REMARK  111  A    between atoms: _271  and  _274
REMARK  112  A    between atoms: _274  and  _275
REMARK  113  A    between atoms: _278  and  _280
REMARK  114  A    between atoms: _280  and  _281
REMARK  115  A    between atoms: _280  and  _283
REMARK  116  A    between atoms: _283  and  _284
REMARK  117  A    between atoms: _287  and  _289
REMARK  118  A    between atoms: _289  and  _290
REMARK  119  A    between atoms: _289  and  _292
REMARK  120  A    between atoms: _292  and  _293
REMARK  121  A    between atoms: _293  and  _294
REMARK  122  A    between atoms: _297  and  _299
REMARK  123  A    between atoms: _299  and  _300
REMARK  124  A    between atoms: _299  and  _302
REMARK  125  A    between atoms: _302  and  _303
REMARK  126  A    between atoms: _306  and  _308
REMARK  127  A    between atoms: _308  and  _309
REMARK  128  A    between atoms: _308  and  _311
REMARK  129  A    between atoms: _311  and  _312
REMARK  130  A    between atoms: _314  and  _316
REMARK  131  A    between atoms: _316  and  _317
REMARK  132  A    between atoms: _316  and  _319
REMARK  133  A    between atoms: _319  and  _320
REMARK  134  A    between atoms: _320  and  _321
REMARK  135  A    between atoms: _321  and  _322
REMARK  136  A    between atoms: _331  and  _333
REMARK  137  A    between atoms: _333  and  _334
REMARK  138  A    between atoms: _333  and  _336
REMARK  139  A    between atoms: _336  and  _337
REMARK  140  A    between atoms: _337  and  _338
REMARK  141  A    between atoms: _338  and  _339
REMARK  142  A    between atoms: _348  and  _350
REMARK  143  A    between atoms: _350  and  _351
REMARK  144  A    between atoms: _350  and  _353
REMARK  145  A    between atoms: _353  and  _354
REMARK  146  A    between atoms: _357  and  _359
REMARK  147  A    between atoms: _359  and  _360
REMARK  148  A    between atoms: _359  and  _362
REMARK  149  A    between atoms: _362  and  _363
REMARK  150  A    between atoms: _366  and  _368
REMARK  151  A    between atoms: _368  and  _369
REMARK  152  A    between atoms: _368  and  _371
REMARK  153  A    between atoms: _371  and  _372
REMARK  154  A    between atoms: _378  and  _380
REMARK  155  A    between atoms: _380  and  _381
REMARK  156  A    between atoms: _380  and  _383
REMARK  157  A    between atoms: _383  and  _384
REMARK  158  A    between atoms: _387  and  _389
REMARK  159  A    between atoms: _389  and  _390
REMARK  160  A    between atoms: _389  and  _392
REMARK  161  A    between atoms: _392  and  _393
REMARK  162  A    between atoms: _393  and  _394
REMARK  163  A    between atoms: _394  and  _395
REMARK  164  A    between atoms: _395  and  _396
REMARK  165  A    between atoms: _400  and  _402
REMARK  166  A    between atoms: _402  and  _403
REMARK  167  A    between atoms: _402  and  _405
REMARK  168  A    between atoms: _405  and  _406
REMARK  169  A    between atoms: _409  and  _411
REMARK  170  A    between atoms: _411  and  _412
REMARK  171  A    between atoms: _411  and  _414
REMARK  172  A    between atoms: _414  and  _415
REMARK  173  A    between atoms: _421  and  _423
REMARK  174  A    between atoms: _423  and  _424
REMARK  175  A    between atoms: _423  and  _426
REMARK  176  A    between atoms: _426  and  _427
REMARK  177  A    between atoms: _432  and  _433
REMARK  178  A    between atoms: _435  and  _437
REMARK  179  A    between atoms: _437  and  _438
REMARK  180  A    between atoms: _437  and  _440
REMARK  181  A    between atoms: _440  and  _441
REMARK  182  A    between atoms: _447  and  _449
REMARK  183  A    between atoms: _449  and  _450
REMARK  184  A    between atoms: _453  and  _455
REMARK  185  A    between atoms: _455  and  _456
REMARK  186  A    between atoms: _458  and  _460
REMARK  187  A    between atoms: _460  and  _461
REMARK  188  A    between atoms: _460  and  _463
REMARK  189  A    between atoms: _463  and  _464
REMARK  190  A    between atoms: _467  and  _469
REMARK  191  A    between atoms: _469  and  _470
REMARK  192  A    between atoms: _469  and  _472
REMARK  193  A    between atoms: _472  and  _473
REMARK  194  A    between atoms: _473  and  _474
REMARK  195  A    between atoms: _479  and  _481
REMARK  196  A    between atoms: _481  and  _482
REMARK  197  A    between atoms: _481  and  _484
REMARK  198  A    between atoms: _484  and  _485
REMARK  199  A    between atoms: _491  and  _493
REMARK  200  A    between atoms: _493  and  _494
REMARK  201  A    between atoms: _493  and  _496
REMARK  202  A    between atoms: _496  and  _497
REMARK  203  A    between atoms: _500  and  _502
REMARK  204  A    between atoms: _502  and  _503
REMARK  205  A    between atoms: _502  and  _505
REMARK  206  A    between atoms: _505  and  _506
REMARK  207  A    between atoms: _512  and  _514
REMARK  208  A    between atoms: _514  and  _515
REMARK  209  A    between atoms: _514  and  _517
REMARK  210  A    between atoms: _517  and  _518
REMARK  211  A    between atoms: _520  and  _522
REMARK  212  A    between atoms: _522  and  _523
REMARK  213  A    between atoms: _522  and  _525
REMARK  214  A    between atoms: _525  and  _526
REMARK  215  A    between atoms: _529  and  _531
REMARK  216  A    between atoms: _531  and  _532
REMARK  217  A    between atoms: _531  and  _534
REMARK  218  A    between atoms: _534  and  _535
REMARK  219  A    between atoms: _540  and  _542
REMARK  220  A    between atoms: _542  and  _543
REMARK  221  A    between atoms: _542  and  _545
REMARK  222  A    between atoms: _545  and  _546
REMARK  223  A    between atoms: _548  and  _550
REMARK  224  A    between atoms: _550  and  _551
REMARK  225  A    between atoms: _550  and  _553
REMARK  226  A    between atoms: _553  and  _554
REMARK  227  A    between atoms: _554  and  _555
REMARK  228  A    between atoms: _560  and  _562
REMARK  229  A    between atoms: _562  and  _563
REMARK  230  A    between atoms: _562  and  _565
REMARK  231  A    between atoms: _568  and  _570
REMARK  232  A    between atoms: _570  and  _571
REMARK  233  A    between atoms: _570  and  _573
REMARK  234  A    between atoms: _573  and  _574
REMARK  235  A    between atoms: _580  and  _582
REMARK  236  A    between atoms: _582  and  _583
REMARK  237  A    between atoms: _586  and  _588
REMARK  238  A    between atoms: _588  and  _589
REMARK  239  A    between atoms: _588  and  _591
REMARK  240  A    between atoms: _591  and  _592
REMARK  241  A    between atoms: _595  and  _597
REMARK  242  A    between atoms: _597  and  _598
REMARK  243  A    between atoms: _597  and  _600
REMARK  244  A    between atoms: _600  and  _601
REMARK  245  A    between atoms: _601  and  _602
REMARK  246  A    between atoms: _607  and  _609
REMARK  247  A    between atoms: _609  and  _610
REMARK  248  A    between atoms: _609  and  _612
REMARK  249  A    between atoms: _612  and  _613
REMARK  250  A    between atoms: _613  and  _614
REMARK  251  A    between atoms: _614  and  _615
REMARK  252  A    between atoms: _615  and  _616
REMARK  253  A    between atoms: _620  and  _622
REMARK  254  A    between atoms: _622  and  _623
REMARK  255  A    between atoms: _622  and  _625
REMARK  256  A    between atoms: _625  and  _626
REMARK  257  A    between atoms: _626  and  _627
REMARK  258  A    between atoms: _627  and  _628
REMARK  259  A    between atoms: _628  and  _629
REMARK  260  A    between atoms: _633  and  _635
REMARK  261  A    between atoms: _635  and  _636
REMARK  262  A    between atoms: _635  and  _638
REMARK  263  A    between atoms: _638  and  _639
REMARK  264  A    between atoms: _643  and  _644
REMARK  265  A    between atoms: _649  and  _651
REMARK  266  A    between atoms: _651  and  _652
REMARK  267  A    between atoms: _651  and  _654
REMARK  268  A    between atoms: _654  and  _655
REMARK  269  A    between atoms: _658  and  _660
REMARK  270  A    between atoms: _660  and  _661
REMARK  271  A    between atoms: _660  and  _663
REMARK  272  A    between atoms: _663  and  _664
REMARK  273  A    between atoms: _666  and  _668
REMARK  274  A    between atoms: _668  and  _669
REMARK  275  A    between atoms: _668  and  _671
REMARK  276  A    between atoms: _671  and  _672
REMARK                            x       y       z     vdW  Elec       q    Type
REMARK                         _______ _______ _______ _____ _____    ______ ____
ROOT
ATOM      1  CA  LEU A   4      12.474 -12.675  13.555  0.00  0.00    +0.149 C 
ENDROOT
BRANCH   1   4
ATOM      2  C   PHE A   3      13.581 -14.812  13.983  0.00  0.00    +0.241 C 
ATOM      3  O   PHE A   3      12.504 -15.332  14.286  0.00  0.00    -0.273 OA
ATOM      4  N   LEU A   4      13.676 -13.528  13.645  0.00  0.00    -0.297 N 
ATOM      5  H   LEU A   4      14.611 -13.120  13.441  0.00  0.00    +0.150 HD
BRANCH   2   6
ATOM      6  CA  PHE A   3      14.853 -15.676  13.947  0.00  0.00    +0.153 C 
BRANCH   6   9
ATOM      7  C   THR A   2      14.422 -17.198  12.108  0.00  0.00    +0.243 C 
ATOM      8  O   THR A   2      13.733 -17.923  12.808  0.00  0.00    -0.273 OA
ATOM      9  N   PHE A   3      15.074 -16.148  12.587  0.00  0.00    -0.297 N 
ATOM     10  H   PHE A   3      15.757 -15.651  11.980  0.00  0.00    +0.150 HD
BRANCH   7  11
ATOM     11  CA  THR A   2      14.557 -17.458  10.614  0.00  0.00    +0.176 C 
BRANCH  11  13
ATOM     12  C   ILE A   1      16.833 -18.187  10.161  0.00  0.00    +0.238 C 
ATOM     13  N   THR A   2      15.559 -18.492  10.377  0.00  0.00    -0.295 N 
ATOM     14  H   THR A   2      15.269 -19.491  10.377  0.00  0.00    +0.150 HD
ATOM     15  O   ILE A   1      17.241 -17.029  10.096  0.00  0.00    -0.274 OA
BRANCH  12  16
ATOM     16  CA  ILE A   1      17.805 -19.358  10.003  0.00  0.00    +0.145 C 
BRANCH  16  17
ATOM     17  N   ILE A   1      18.473 -19.246   8.719  0.00  0.00    -0.238 NA
ATOM     18  H   ILE A   1      19.076 -18.416   8.549  0.00  0.00    +0.142 HD
ENDBRANCH  16  17
BRANCH  16  19
ATOM     19  CB  ILE A   1      18.812 -19.310  11.172  0.00  0.00    +0.025 C 
ATOM     20  CG2 ILE A   1      18.076 -19.451  12.503  0.00  0.00    +0.002 C 
BRANCH  19  21
ATOM     21  CG1 ILE A   1      19.877 -20.399  11.017  0.00  0.00    +0.002 C 
ATOM     22  CD1 ILE A   1      19.323 -21.812  11.073  0.00  0.00    +0.000 C 
ENDBRANCH  19  21
ENDBRANCH  16  19
ENDBRANCH  12  16
ENDBRANCH  11  13
BRANCH  11  23
ATOM     23  CB  THR A   2      13.158 -17.843  10.045  0.00  0.00    +0.137 C 
ATOM     24  CG2 THR A   2      12.074 -16.934  10.625  0.00  0.00    +0.034 C 
BRANCH  23  25
ATOM     25  OG1 THR A   2      13.161 -17.724   8.614  0.00  0.00    -0.382 OA
ATOM     26  HG1 THR A   2      13.846 -18.330   8.235  0.00  0.00    +0.210 HD
ENDBRANCH  23  25
ENDBRANCH  11  23
ENDBRANCH   7  11
ENDBRANCH   6   9
BRANCH   6  27
ATOM     27  CB  PHE A   3      16.101 -14.953  14.465  0.00  0.00    +0.055 C 
BRANCH  27  28
ATOM     28  CG  PHE A   3      17.313 -15.849  14.586  0.00  0.00    -0.020 A 
ATOM     29  CD2 PHE A   3      17.234 -17.073  15.264  0.00  0.00    -0.004 A 
ATOM     30  CE2 PHE A   3      18.344 -17.896  15.394  0.00  0.00    -0.000 A 
ATOM     31  CZ  PHE A   3      19.557 -17.506  14.843  0.00  0.00    -0.000 A 
ATOM     32  CE1 PHE A   3      19.655 -16.287  14.172  0.00  0.00    -0.000 A 
ATOM     33  CD1 PHE A   3      18.533 -15.468  14.048  0.00  0.00    -0.004 A 
ENDBRANCH  27  28
ENDBRANCH   6  27
ENDBRANCH   2   6
ENDBRANCH   1   4
BRANCH   1  34
ATOM     34  C   LEU A   4      11.677 -13.047  12.305  0.00  0.00    +0.241 C 
ATOM     35  N   LYS A   5      10.354 -12.894  12.377  0.00  0.00    -0.297 N 
ATOM     36  H   LYS A   5       9.968 -12.222  13.071  0.00  0.00    +0.150 HD
ATOM     37  O   LEU A   4      12.260 -13.438  11.296  0.00  0.00    -0.273 OA
BRANCH  35  38
ATOM     38  CA  LYS A   5       9.415 -13.635  11.516  0.00  0.00    +0.149 C 
BRANCH  38  39
ATOM     39  C   LYS A   5       9.562 -13.411  10.010  0.00  0.00    +0.241 C 
ATOM     40  N   ASP A   6       9.620 -12.152   9.587  0.00  0.00    -0.297 N 
ATOM     41  H   ASP A   6       9.573 -11.372  10.274  0.00  0.00    +0.150 HD
ATOM     42  O   LYS A   5       9.605 -14.381   9.229  0.00  0.00    -0.273 OA
BRANCH  40  43
ATOM     43  CA  ASP A   6       9.751 -11.856   8.150  0.00  0.00    +0.160 C 
BRANCH  43  44
ATOM     44  C   ASP A   6      11.219 -11.677   7.743  0.00  0.00    +0.241 C 
ATOM     45  N   PHE A   7      12.127 -12.348   8.451  0.00  0.00    -0.298 N 
ATOM     46  H   PHE A   7      11.818 -13.085   9.117  0.00  0.00    +0.150 HD
ATOM     47  O   ASP A   6      11.520 -10.966   6.784  0.00  0.00    -0.273 OA
BRANCH  45  48
ATOM     48  CA  PHE A   7      13.546 -12.061   8.303  0.00  0.00    +0.141 C 
BRANCH  48  49
ATOM     49  C   PHE A   7      14.420 -13.293   8.574  0.00  0.00    +0.227 C 
ATOM     50  O   PHE A   7      14.396 -13.858   9.671  0.00  0.00    -0.286 OA
ENDBRANCH  48  49
BRANCH  48  51
ATOM     51  CB  PHE A   7      13.917 -10.895   9.225  0.00  0.00    +0.054 C 
BRANCH  51  52
ATOM     52  CG  PHE A   7      14.809  -9.873   8.579  0.00  0.00    -0.020 A 
ATOM     53  CD2 PHE A   7      16.060  -9.585   9.113  0.00  0.00    -0.004 A 
ATOM     54  CE2 PHE A   7      16.885  -8.649   8.523  0.00  0.00    -0.000 A 
ATOM     55  CZ  PHE A   7      16.465  -7.970   7.380  0.00  0.00    -0.000 A 
ATOM     56  CE1 PHE A   7      15.215  -8.245   6.836  0.00  0.00    -0.000 A 
ATOM     57  CD1 PHE A   7      14.392  -9.189   7.440  0.00  0.00    -0.004 A 
ENDBRANCH  51  52
ENDBRANCH  48  51
ENDBRANCH  45  48
ENDBRANCH  43  44
BRANCH  43  58
ATOM     58  CB  ASP A   6       8.928 -10.611   7.774  0.00  0.00    +0.143 C 
BRANCH  58  59
ATOM     59  CG  ASP A   6       7.422 -10.830   7.916  0.00  0.00    +0.367 C 
ATOM     60  OD2 ASP A   6       6.697  -9.819   8.054  0.00  0.00    -0.246 OA
ATOM     61  OD1 ASP A   6       6.963 -12.000   7.879  0.00  0.00    -0.246 OA
ENDBRANCH  58  59
ENDBRANCH  43  58
ENDBRANCH  40  43
ENDBRANCH  38  39
BRANCH  38  62
ATOM     62  CB  LYS A   5       7.966 -13.350  11.932  0.00  0.00    +0.029 C 
BRANCH  62  63
ATOM     63  CG  LYS A   5       6.974 -14.457  11.540  0.00  0.00    +0.000 C 
BRANCH  63  64
ATOM     64  CD  LYS A   5       5.982 -14.779  12.672  0.00  0.00    -0.024 C 
BRANCH  64  65
ATOM     65  CE  LYS A   5       6.684 -15.459  13.866  0.00  0.00    -0.086 C 
BRANCH  65  66
ATOM     66  NZ  LYS A   5       5.741 -16.022  14.874  0.00  0.00    +0.380 N 
ATOM     67  HZ1 LYS A   5       6.282 -16.462  15.645  0.00  0.00    -0.089 HD
ATOM     68  HZ2 LYS A   5       5.148 -15.258  15.257  0.00  0.00    -0.089 HD
ATOM     69  HZ3 LYS A   5       5.137 -16.737  14.421  0.00  0.00    -0.089 HD
ENDBRANCH  65  66
ENDBRANCH  64  65
ENDBRANCH  63  64
ENDBRANCH  62  63
ENDBRANCH  38  62
ENDBRANCH  35  38
ENDBRANCH   1  34
BRANCH   1  70
ATOM     70  CB  LEU A   4      12.833 -11.183  13.563  0.00  0.00    +0.029 C 
BRANCH  70  71
ATOM     71  CG  LEU A   4      12.836 -10.491  14.940  0.00  0.00    +0.002 C 
ATOM     72  CD2 LEU A   4      13.587 -11.282  16.000  0.00  0.00    +0.000 C 
ATOM     73  CD1 LEU A   4      11.412 -10.215  15.406  0.00  0.00    +0.000 C 
ENDBRANCH  70  71
ENDBRANCH   1  70
TORSDOF 31
REMARK  Name = ../refined-set-2016/3ipu/3ipu_pocket.pdb
REMARK  276 active torsions:
REMARK  status: ('A' for Active; 'I' for Inactive)
REMARK    1  A    between atoms: _1  and  _3
REMARK    2  A    between atoms: _3  and  _4
REMARK    3  A    between atoms: _3  and  _6
REMARK    4  A    between atoms: _6  and  _7
REMARK    5  A    between atoms: _12  and  _14
REMARK    6  A    between atoms: _14  and  _15
REMARK    7  A    between atoms: _14  and  _17
REMARK    8  A    between atoms: _17  and  _18
REMARK    9  A    between atoms: _18  and  _19
REMARK   10  A    between atoms: _19  and  _20
REMARK   11  A    between atoms: _29  and  _31
REMARK   12  A    between atoms: _31  and  _32
REMARK   13  A    between atoms: _31  and  _34
REMARK   14  A    between atoms: _34  and  _35
REMARK   15  A    between atoms: _37  and  _39
REMARK   16  A    between atoms: _39  and  _40
REMARK   17  A    between atoms: _39  and  _42
REMARK   18  A    between atoms: _42  and  _43
REMARK   19  A    between atoms: _49  and  _51
REMARK   20  A    between atoms: _51  and  _52
REMARK   21  A    between atoms: _51  and  _54
REMARK   22  A    between atoms: _54  and  _55
REMARK   23  A    between atoms: _55  and  _56
REMARK   24  A    between atoms: _56  and  _57
REMARK   25  A    between atoms: _66  and  _68
REMARK   26  A    between atoms: _68  and  _69
REMARK   27  A    between atoms: _68  and  _71
REMARK   28  A    between atoms: _71  and  _72
REMARK   29  A    between atoms: _75  and  _77
REMARK   30  A    between atoms: _77  and  _78
REMARK   31  A    between atoms: _77  and  _80
REMARK   32  A    between atoms: _83  and  _85
REMARK   33  A    between atoms: _85  and  _86
REMARK   34  A    between atoms: _85  and  _88
REMARK   35  A    between atoms: _88  and  _89
REMARK   36  A    between atoms: _89  and  _90
REMARK   37  A    between atoms: _90  and  _91
REMARK   38  A    between atoms: _100  and  _102
REMARK   39  A    between atoms: _102  and  _103
REMARK   40  A    between atoms: _102  and  _105
REMARK   41  A    between atoms: _105  and  _106
REMARK   42  A    between atoms: _112  and  _114
REMARK   43  A    between atoms: _114  and  _115
REMARK   44  A    between atoms: _118  and  _120
REMARK   45  A    between atoms: _120  and  _121
REMARK   46  A    between atoms: _120  and  _123
REMARK   47  A    between atoms: _123  and  _124
REMARK   48  A    between atoms: _129  and  _131
REMARK   49  A    between atoms: _131  and  _132
REMARK   50  A    between atoms: _131  and  _134
REMARK   51  A    between atoms: _134  and  _135
REMARK   52  A    between atoms: _141  and  _143
REMARK   53  A    between atoms: _143  and  _144
REMARK   54  A    between atoms: _143  and  _146
REMARK   55  A    between atoms: _146  and  _147
REMARK   56  A    between atoms: _150  and  _152
REMARK   57  A    between atoms: _152  and  _153
REMARK   58  A    between atoms: _152  and  _155
REMARK   59  A    between atoms: _155  and  _156
REMARK   60  A    between atoms: _156  and  _157
REMARK   61  A    between atoms: _160  and  _162
REMARK   62  A    between atoms: _162  and  _163
REMARK   63  A    between atoms: _162  and  _165
REMARK   64  A    between atoms: _165  and  _166
REMARK   65  A    between atoms: _169  and  _171
REMARK   66  A    between atoms: _171  and  _172
REMARK   67  A    between atoms: _175  and  _177
REMARK   68  A    between atoms: _177  and  _178
REMARK   69  A    between atoms: _177  and  _180
REMARK   70  A    between atoms: _180  and  _181
REMARK   71  A    between atoms: _184  and  _186
REMARK   72  A    between atoms: _186  and  _187
REMARK   73  A    between atoms: _186  and  _189
REMARK   74  A    between atoms: _192  and  _194
REMARK   75  A    between atoms: _194  and  _195
REMARK   76  A    between atoms: _194  and  _197
REMARK   77  A    between atoms: _197  and  _198
REMARK   78  A    between atoms: _200  and  _202
REMARK   79  A    between atoms: _202  and  _203
REMARK   80  A    between atoms: _202  and  _205
REMARK   81  A    between atoms: _208  and  _210
REMARK   82  A    between atoms: _210  and  _211
REMARK   83  A    between atoms: _210  and  _213
REMARK   84  A    between atoms: _213  and  _214
REMARK   85  A    between atoms: _214  and  _215
REMARK   86  A    between atoms: _218  and  _220
REMARK   87  A    between atoms: _220  and  _221
REMARK   88  A    between atoms: _220  and  _223
REMARK   89  A    between atoms: _223  and  _224
REMARK   90  A    between atoms: _227  and  _229
REMARK   91  A    between atoms: _229  and  _230
REMARK   92  A    between atoms: _233  and  _235
REMARK   93  A    between atoms: _235  and  _236
REMARK   94  A    between atoms: _235  and  _238
REMARK   95  A    between atoms: _238  and  _239
REMARK   96  A    between atoms: _242  and  _244
REMARK   97  A    between atoms: _244  and  _245
REMARK   98  A    between atoms: _244  and  _247
REMARK   99  A    between atoms: _247  and  _248
REMARK  100  A    between atoms: _248  and  _249
REMARK  101  A    between atoms: _252  and  _254
REMARK  102  A    between atoms: _254  and  _255
REMARK  103  A    between atoms: _254  and  _257
REMARK  104  A    between atoms: _260  and  _262
REMARK  105  A    between atoms: _262  and  _263
REMARK  106  A    between atoms: _262  and  _265
REMARK  107  A    between atoms: _265  and  _266
REMARK  108  A    between atoms: _266  and  _267
REMARK  109  A    between atoms: _269  and  _271
REMARK  110  A    between atoms: _271  and  _272
REMARK  111  A    between atoms: _271  and  _274
REMARK  112  A    between atoms: _274  and  _275
REMARK  113  A    between atoms: _278  and  _280
REMARK  114  A    between atoms: _280  and  _281
REMARK  115  A    between atoms: _280  and  _283
REMARK  116  A    between atoms: _283  and  _284
REMARK  117  A    between atoms: _287  and  _289
REMARK  118  A    between atoms: _289  and  _290
REMARK  119  A    between atoms: _289  and  _292
REMARK  120  A    between atoms: _292  and  _293
REMARK  121  A    between atoms: _293  and  _294
REMARK  122  A    between atoms: _297  and  _299
REMARK  123  A    between atoms: _299  and  _300
REMARK  124  A    between atoms: _299  and  _302
REMARK  125  A    between atoms: _302  and  _303
REMARK  126  A    between atoms: _306  and  _308
REMARK  127  A    between atoms: _308  and  _309
REMARK  128  A    between atoms: _308  and  _311
REMARK  129  A    between atoms: _311  and  _312
REMARK  130  A    between atoms: _314  and  _316
REMARK  131  A    between atoms: _316  and  _317
REMARK  132  A    between atoms: _316  and  _319
REMARK  133  A    between atoms: _319  and  _320
REMARK  134  A    between atoms: _320  and  _321
REMARK  135  A    between atoms: _321  and  _322
REMARK  136  A    between atoms: _331  and  _333
REMARK  137  A    between atoms: _333  and  _334
REMARK  138  A    between atoms: _333  and  _336
REMARK  139  A    between atoms: _336  and  _337
REMARK  140  A    between atoms: _337  and  _338
REMARK  141  A    between atoms: _338  and  _339
REMARK  142  A    between atoms: _348  and  _350
REMARK  143  A    between atoms: _350  and  _351
REMARK  144  A    between atoms: _350  and  _353
REMARK  145  A    between atoms: _353  and  _354
REMARK  146  A    between atoms: _357  and  _359
REMARK  147  A    between atoms: _359  and  _360
REMARK  148  A    between atoms: _359  and  _362
REMARK  149  A    between atoms: _362  and  _363
REMARK  150  A    between atoms: _366  and  _368
REMARK  151  A    between atoms: _368  and  _369
REMARK  152  A    between atoms: _368  and  _371
REMARK  153  A    between atoms: _371  and  _372
REMARK  154  A    between atoms: _378  and  _380
REMARK  155  A    between atoms: _380  and  _381
REMARK  156  A    between atoms: _380  and  _383
REMARK  157  A    between atoms: _383  and  _384
REMARK  158  A    between atoms: _387  and  _389
REMARK  159  A    between atoms: _389  and  _390
REMARK  160  A    between atoms: _389  and  _392
REMARK  161  A    between atoms: _392  and  _393
REMARK  162  A    between atoms: _393  and  _394
REMARK  163  A    between atoms: _394  and  _395
REMARK  164  A    between atoms: _395  and  _396
REMARK  165  A    between atoms: _400  and  _402
REMARK  166  A    between atoms: _402  and  _403
REMARK  167  A    between atoms: _402  and  _405
REMARK  168  A    between atoms: _405  and  _406
REMARK  169  A    between atoms: _409  and  _411
REMARK  170  A    between atoms: _411  and  _412
REMARK  171  A    between atoms: _411  and  _414
REMARK  172  A    between atoms: _414  and  _415
REMARK  173  A    between atoms: _421  and  _423
REMARK  174  A    between atoms: _423  and  _424
REMARK  175  A    between atoms: _423  and  _426
REMARK  176  A    between atoms: _426  and  _427
REMARK  177  A    between atoms: _432  and  _433
REMARK  178  A    between atoms: _435  and  _437
REMARK  179  A    between atoms: _437  and  _438
REMARK  180  A    between atoms: _437  and  _440
REMARK  181  A    between atoms: _440  and  _441
REMARK  182  A    between atoms: _447  and  _449
REMARK  183  A    between atoms: _449  and  _450
REMARK  184  A    between atoms: _453  and  _455
REMARK  185  A    between atoms: _455  and  _456
REMARK  186  A    between atoms: _458  and  _460
REMARK  187  A    between atoms: _460  and  _461
REMARK  188  A    between atoms: _460  and  _463
REMARK  189  A    between atoms: _463  and  _464
REMARK  190  A    between atoms: _467  and  _469
REMARK  191  A    between atoms: _469  and  _470
REMARK  192  A    between atoms: _469  and  _472
REMARK  193  A    between atoms: _472  and  _473
REMARK  194  A    between atoms: _473  and  _474
REMARK  195  A    between atoms: _479  and  _481
REMARK  196  A    between atoms: _481  and  _482
REMARK  197  A    between atoms: _481  and  _484
REMARK  198  A    between atoms: _484  and  _485
REMARK  199  A    between atoms: _491  and  _493
REMARK  200  A    between atoms: _493  and  _494
REMARK  201  A    between atoms: _493  and  _496
REMARK  202  A    between atoms: _496  and  _497
REMARK  203  A    between atoms: _500  and  _502
REMARK  204  A    between atoms: _502  and  _503
REMARK  205  A    between atoms: _502  and  _505
REMARK  206  A    between atoms: _505  and  _506
REMARK  207  A    between atoms: _512  and  _514
REMARK  208  A    between atoms: _514  and  _515
REMARK  209  A    between atoms: _514  and  _517
REMARK  210  A    between atoms: _517  and  _518
REMARK  211  A    between atoms: _520  and  _522
REMARK  212  A    between atoms: _522  and  _523
REMARK  213  A    between atoms: _522  and  _525
REMARK  214  A    between atoms: _525  and  _526
REMARK  215  A    between atoms: _529  and  _531
REMARK  216  A    between atoms: _531  and  _532
REMARK  217  A    between atoms: _531  and  _534
REMARK  218  A    between atoms: _534  and  _535
REMARK  219  A    between atoms: _540  and  _542
REMARK  220  A    between atoms: _542  and  _543
REMARK  221  A    between atoms: _542  and  _545
REMARK  222  A    between atoms: _545  and  _546
REMARK  223  A    between atoms: _548  and  _550
REMARK  224  A    between atoms: _550  and  _551
REMARK  225  A    between atoms: _550  and  _553
REMARK  226  A    between atoms: _553  and  _554
REMARK  227  A    between atoms: _554  and  _555
REMARK  228  A    between atoms: _560  and  _562
REMARK  229  A    between atoms: _562  and  _563
REMARK  230  A    between atoms: _562  and  _565
REMARK  231  A    between atoms: _568  and  _570
REMARK  232  A    between atoms: _570  and  _571
REMARK  233  A    between atoms: _570  and  _573
REMARK  234  A    between atoms: _573  and  _574
REMARK  235  A    between atoms: _580  and  _582
REMARK  236  A    between atoms: _582  and  _583
REMARK  237  A    between atoms: _586  and  _588
REMARK  238  A    between atoms: _588  and  _589
REMARK  239  A    between atoms: _588  and  _591
REMARK  240  A    between atoms: _591  and  _592
REMARK  241  A    between atoms: _595  and  _597
REMARK  242  A    between atoms: _597  and  _598
REMARK  243  A    between atoms: _597  and  _600
REMARK  244  A    between atoms: _600  and  _601
REMARK  245  A    between atoms: _601  and  _602
REMARK  246  A    between atoms: _607  and  _609
REMARK  247  A    between atoms: _609  and  _610
REMARK  248  A    between atoms: _609  and  _612
REMARK  249  A    between atoms: _612  and  _613
REMARK  250  A    between atoms: _613  and  _614
REMARK  251  A    between atoms: _614  and  _615
REMARK  252  A    between atoms: _615  and  _616
REMARK  253  A    between atoms: _620  and  _622
REMARK  254  A    between atoms: _622  and  _623
REMARK  255  A    between atoms: _622  and  _625
REMARK  256  A    between atoms: _625  and  _626
REMARK  257  A    between atoms: _626  and  _627
REMARK  258  A    between atoms: _627  and  _628
REMARK  259  A    between atoms: _628  and  _629
REMARK  260  A    between atoms: _633  and  _635
REMARK  261  A    between atoms: _635  and  _636
REMARK  262  A    between atoms: _635  and  _638
REMARK  263  A    between atoms: _638  and  _639
REMARK  264  A    between atoms: _643  and  _644
REMARK  265  A    between atoms: _649  and  _651
REMARK  266  A    between atoms: _651  and  _652
REMARK  267  A    between atoms: _651  and  _654
REMARK  268  A    between atoms: _654  and  _655
REMARK  269  A    between atoms: _658  and  _660
REMARK  270  A    between atoms: _660  and  _661
REMARK  271  A    between atoms: _660  and  _663
REMARK  272  A    between atoms: _663  and  _664
REMARK  273  A    between atoms: _666  and  _668
REMARK  274  A    between atoms: _668  and  _669
REMARK  275  A    between atoms: _668  and  _671
REMARK  276  A    between atoms: _671  and  _672
REMARK                            x       y       z     vdW  Elec       q    Type
REMARK                         _______ _______ _______ _____ _____    ______ ____
ROOT
ATOM      1  CG  TYR A   1      19.432 -13.710  10.341  0.00  0.00    -0.020 A 
ATOM      2  CD2 TYR A   1      18.219 -13.916  10.986  0.00  0.00    -0.001 A 
ATOM      3  CE2 TYR A   1      17.546 -12.875  11.614  0.00  0.00    +0.036 A 
ATOM      4  CZ  TYR A   1      18.087 -11.606  11.603  0.00  0.00    +0.134 A 
ATOM      5  CE1 TYR A   1      19.290 -11.374  10.963  0.00  0.00    +0.036 A 
ATOM      6  CD1 TYR A   1      19.957 -12.429  10.337  0.00  0.00    -0.001 A 
ENDROOT
BRANCH   4   7
ATOM      7  OH  TYR A   1      17.418 -10.569  12.224  0.00  0.00    -0.506 OA
ATOM      8  HH  TYR A   1      17.993 -10.183  12.932  0.00  0.00    +0.292 HD
ENDBRANCH   4   7
BRANCH   1   9
ATOM      9  CB  TYR A   1      20.158 -14.854   9.660  0.00  0.00    +0.051 C 
BRANCH   9  10
ATOM     10  CA  TYR A   1      19.709 -15.123   8.217  0.00  0.00    +0.137 C 
BRANCH  10  11
ATOM     11  N   TYR A   1      18.274 -15.387   8.158  0.00  0.00    -0.239 NA
ATOM     12  H   TYR A   1      17.892 -16.224   8.643  0.00  0.00    +0.142 HD
ENDBRANCH  10  11
BRANCH  10  13
ATOM     13  C   TYR A   1      20.478 -16.304   7.649  0.00  0.00    +0.224 C 
ATOM     14  O   TYR A   1      20.287 -17.442   8.081  0.00  0.00    -0.287 OA
ENDBRANCH  10  13
ENDBRANCH   9  10
ENDBRANCH   1   9
TORSDOF 5
REMARK  Name = ../refined-set-2016/3ipu/3ipu_pocket.pdb
REMARK  276 active torsions:
REMARK  status: ('A' for Active; 'I' for Inactive)
REMARK    1  A    between atoms: _1  and  _3
REMARK    2  A    between atoms: _3  and  _4
REMARK    3  A    between atoms: _3  and  _6
REMARK    4  A    between atoms: _6  and  _7
REMARK    5  A    between atoms: _12  and  _14
REMARK    6  A    between atoms: _14  and  _15
REMARK    7  A    between atoms: _14  and  _17
REMARK    8  A    between atoms: _17  and  _18
REMARK    9  A    between atoms: _18  and  _19
REMARK   10  A    between atoms: _19  and  _20
REMARK   11  A    between atoms: _29  and  _31
REMARK   12  A    between atoms: _31  and  _32
REMARK   13  A    between atoms: _31  and  _34
REMARK   14  A    between atoms: _34  and  _35
REMARK   15  A    between atoms: _37  and  _39
REMARK   16  A    between atoms: _39  and  _40
REMARK   17  A    between atoms: _39  and  _42
REMARK   18  A    between atoms: _42  and  _43
REMARK   19  A    between atoms: _49  and  _51
REMARK   20  A    between atoms: _51  and  _52
REMARK   21  A    between atoms: _51  and  _54
REMARK   22  A    between atoms: _54  and  _55
REMARK   23  A    between atoms: _55  and  _56
REMARK   24  A    between atoms: _56  and  _57
REMARK   25  A    between atoms: _66  and  _68
REMARK   26  A    between atoms: _68  and  _69
REMARK   27  A    between atoms: _68  and  _71
REMARK   28  A    between atoms: _71  and  _72
REMARK   29  A    between atoms: _75  and  _77
REMARK   30  A    between atoms: _77  and  _78
REMARK   31  A    between atoms: _77  and  _80
REMARK   32  A    between atoms: _83  and  _85
REMARK   33  A    between atoms: _85  and  _86
REMARK   34  A    between atoms: _85  and  _88
REMARK   35  A    between atoms: _88  and  _89
REMARK   36  A    between atoms: _89  and  _90
REMARK   37  A    between atoms: _90  and  _91
REMARK   38  A    between atoms: _100  and  _102
REMARK   39  A    between atoms: _102  and  _103
REMARK   40  A    between atoms: _102  and  _105
REMARK   41  A    between atoms: _105  and  _106
REMARK   42  A    between atoms: _112  and  _114
REMARK   43  A    between atoms: _114  and  _115
REMARK   44  A    between atoms: _118  and  _120
REMARK   45  A    between atoms: _120  and  _121
REMARK   46  A    between atoms: _120  and  _123
REMARK   47  A    between atoms: _123  and  _124
REMARK   48  A    between atoms: _129  and  _131
REMARK   49  A    between atoms: _131  and  _132
REMARK   50  A    between atoms: _131  and  _134
REMARK   51  A    between atoms: _134  and  _135
REMARK   52  A    between atoms: _141  and  _143
REMARK   53  A    between atoms: _143  and  _144
REMARK   54  A    between atoms: _143  and  _146
REMARK   55  A    between atoms: _146  and  _147
REMARK   56  A    between atoms: _150  and  _152
REMARK   57  A    between atoms: _152  and  _153
REMARK   58  A    between atoms: _152  and  _155
REMARK   59  A    between atoms: _155  and  _156
REMARK   60  A    between atoms: _156  and  _157
REMARK   61  A    between atoms: _160  and  _162
REMARK   62  A    between atoms: _162  and  _163
REMARK   63  A    between atoms: _162  and  _165
REMARK   64  A    between atoms: _165  and  _166
REMARK   65  A    between atoms: _169  and  _171
REMARK   66  A    between atoms: _171  and  _172
REMARK   67  A    between atoms: _175  and  _177
REMARK   68  A    between atoms: _177  and  _178
REMARK   69  A    between atoms: _177  and  _180
REMARK   70  A    between atoms: _180  and  _181
REMARK   71  A    between atoms: _184  and  _186
REMARK   72  A    between atoms: _186  and  _187
REMARK   73  A    between atoms: _186  and  _189
REMARK   74  A    between atoms: _192  and  _194
REMARK   75  A    between atoms: _194  and  _195
REMARK   76  A    between atoms: _194  and  _197
REMARK   77  A    between atoms: _197  and  _198
REMARK   78  A    between atoms: _200  and  _202
REMARK   79  A    between atoms: _202  and  _203
REMARK   80  A    between atoms: _202  and  _205
REMARK   81  A    between atoms: _208  and  _210
REMARK   82  A    between atoms: _210  and  _211
REMARK   83  A    between atoms: _210  and  _213
REMARK   84  A    between atoms: _213  and  _214
REMARK   85  A    between atoms: _214  and  _215
REMARK   86  A    between atoms: _218  and  _220
REMARK   87  A    between atoms: _220  and  _221
REMARK   88  A    between atoms: _220  and  _223
REMARK   89  A    between atoms: _223  and  _224
REMARK   90  A    between atoms: _227  and  _229
REMARK   91  A    between atoms: _229  and  _230
REMARK   92  A    between atoms: _233  and  _235
REMARK   93  A    between atoms: _235  and  _236
REMARK   94  A    between atoms: _235  and  _238
REMARK   95  A    between atoms: _238  and  _239
REMARK   96  A    between atoms: _242  and  _244
REMARK   97  A    between atoms: _244  and  _245
REMARK   98  A    between atoms: _244  and  _247
REMARK   99  A    between atoms: _247  and  _248
REMARK  100  A    between atoms: _248  and  _249
REMARK  101  A    between atoms: _252  and  _254
REMARK  102  A    between atoms: _254  and  _255
REMARK  103  A    between atoms: _254  and  _257
REMARK  104  A    between atoms: _260  and  _262
REMARK  105  A    between atoms: _262  and  _263
REMARK  106  A    between atoms: _262  and  _265
REMARK  107  A    between atoms: _265  and  _266
REMARK  108  A    between atoms: _266  and  _267
REMARK  109  A    between atoms: _269  and  _271
REMARK  110  A    between atoms: _271  and  _272
REMARK  111  A    between atoms: _271  and  _274
REMARK  112  A    between atoms: _274  and  _275
REMARK  113  A    between atoms: _278  and  _280
REMARK  114  A    between atoms: _280  and  _281
REMARK  115  A    between atoms: _280  and  _283
REMARK  116  A    between atoms: _283  and  _284
REMARK  117  A    between atoms: _287  and  _289
REMARK  118  A    between atoms: _289  and  _290
REMARK  119  A    between atoms: _289  and  _292
REMARK  120  A    between atoms: _292  and  _293
REMARK  121  A    between atoms: _293  and  _294
REMARK  122  A    between atoms: _297  and  _299
REMARK  123  A    between atoms: _299  and  _300
REMARK  124  A    between atoms: _299  and  _302
REMARK  125  A    between atoms: _302  and  _303
REMARK  126  A    between atoms: _306  and  _308
REMARK  127  A    between atoms: _308  and  _309
REMARK  128  A    between atoms: _308  and  _311
REMARK  129  A    between atoms: _311  and  _312
REMARK  130  A    between atoms: _314  and  _316
REMARK  131  A    between atoms: _316  and  _317
REMARK  132  A    between atoms: _316  and  _319
REMARK  133  A    between atoms: _319  and  _320
REMARK  134  A    between atoms: _320  and  _321
REMARK  135  A    between atoms: _321  and  _322
REMARK  136  A    between atoms: _331  and  _333
REMARK  137  A    between atoms: _333  and  _334
REMARK  138  A    between atoms: _333  and  _336
REMARK  139  A    between atoms: _336  and  _337
REMARK  140  A    between atoms: _337  and  _338
REMARK  141  A    between atoms: _338  and  _339
REMARK  142  A    between atoms: _348  and  _350
REMARK  143  A    between atoms: _350  and  _351
REMARK  144  A    between atoms: _350  and  _353
REMARK  145  A    between atoms: _353  and  _354
REMARK  146  A    between atoms: _357  and  _359
REMARK  147  A    between atoms: _359  and  _360
REMARK  148  A    between atoms: _359  and  _362
REMARK  149  A    between atoms: _362  and  _363
REMARK  150  A    between atoms: _366  and  _368
REMARK  151  A    between atoms: _368  and  _369
REMARK  152  A    between atoms: _368  and  _371
REMARK  153  A    between atoms: _371  and  _372
REMARK  154  A    between atoms: _378  and  _380
REMARK  155  A    between atoms: _380  and  _381
REMARK  156  A    between atoms: _380  and  _383
REMARK  157  A    between atoms: _383  and  _384
REMARK  158  A    between atoms: _387  and  _389
REMARK  159  A    between atoms: _389  and  _390
REMARK  160  A    between atoms: _389  and  _392
REMARK  161  A    between atoms: _392  and  _393
REMARK  162  A    between atoms: _393  and  _394
REMARK  163  A    between atoms: _394  and  _395
REMARK  164  A    between atoms: _395  and  _396
REMARK  165  A    between atoms: _400  and  _402
REMARK  166  A    between atoms: _402  and  _403
REMARK  167  A    between atoms: _402  and  _405
REMARK  168  A    between atoms: _405  and  _406
REMARK  169  A    between atoms: _409  and  _411
REMARK  170  A    between atoms: _411  and  _412
REMARK  171  A    between atoms: _411  and  _414
REMARK  172  A    between atoms: _414  and  _415
REMARK  173  A    between atoms: _421  and  _423
REMARK  174  A    between atoms: _423  and  _424
REMARK  175  A    between atoms: _423  and  _426
REMARK  176  A    between atoms: _426  and  _427
REMARK  177  A    between atoms: _432  and  _433
REMARK  178  A    between atoms: _435  and  _437
REMARK  179  A    between atoms: _437  and  _438
REMARK  180  A    between atoms: _437  and  _440
REMARK  181  A    between atoms: _440  and  _441
REMARK  182  A    between atoms: _447  and  _449
REMARK  183  A    between atoms: _449  and  _450
REMARK  184  A    between atoms: _453  and  _455
REMARK  185  A    between atoms: _455  and  _456
REMARK  186  A    between atoms: _458  and  _460
REMARK  187  A    between atoms: _460  and  _461
REMARK  188  A    between atoms: _460  and  _463
REMARK  189  A    between atoms: _463  and  _464
REMARK  190  A    between atoms: _467  and  _469
REMARK  191  A    between atoms: _469  and  _470
REMARK  192  A    between atoms: _469  and  _472
REMARK  193  A    between atoms: _472  and  _473
REMARK  194  A    between atoms: _473  and  _474
REMARK  195  A    between atoms: _479  and  _481
REMARK  196  A    between atoms: _481  and  _482
REMARK  197  A    between atoms: _481  and  _484
REMARK  198  A    between atoms: _484  and  _485
REMARK  199  A    between atoms: _491  and  _493
REMARK  200  A    between atoms: _493  and  _494
REMARK  201  A    between atoms: _493  and  _496
REMARK  202  A    between atoms: _496  and  _497
REMARK  203  A    between atoms: _500  and  _502
REMARK  204  A    between atoms: _502  and  _503
REMARK  205  A    between atoms: _502  and  _505
REMARK  206  A    between atoms: _505  and  _506
REMARK  207  A    between atoms: _512  and  _514
REMARK  208  A    between atoms: _514  and  _515
REMARK  209  A    between atoms: _514  and  _517
REMARK  210  A    between atoms: _517  and  _518
REMARK  211  A    between atoms: _520  and  _522
REMARK  212  A    between atoms: _522  and  _523
REMARK  213  A    between atoms: _522  and  _525
REMARK  214  A    between atoms: _525  and  _526
REMARK  215  A    between atoms: _529  and  _531
REMARK  216  A    between atoms: _531  and  _532
REMARK  217  A    between atoms: _531  and  _534
REMARK  218  A    between atoms: _534  and  _535
REMARK  219  A    between atoms: _540  and  _542
REMARK  220  A    between atoms: _542  and  _543
REMARK  221  A    between atoms: _542  and  _545
REMARK  222  A    between atoms: _545  and  _546
REMARK  223  A    between atoms: _548  and  _550
REMARK  224  A    between atoms: _550  and  _551
REMARK  225  A    between atoms: _550  and  _553
REMARK  226  A    between atoms: _553  and  _554
REMARK  227  A    between atoms: _554  and  _555
REMARK  228  A    between atoms: _560  and  _562
REMARK  229  A    between atoms: _562  and  _563
REMARK  230  A    between atoms: _562  and  _565
REMARK  231  A    between atoms: _568  and  _570
REMARK  232  A    between atoms: _570  and  _571
REMARK  233  A    between atoms: _570  and  _573
REMARK  234  A    between atoms: _573  and  _574
REMARK  235  A    between atoms: _580  and  _582
REMARK  236  A    between atoms: _582  and  _583
REMARK  237  A    between atoms: _586  and  _588
REMARK  238  A    between atoms: _588  and  _589
REMARK  239  A    between atoms: _588  and  _591
REMARK  240  A    between atoms: _591  and  _592
REMARK  241  A    between atoms: _595  and  _597
REMARK  242  A    between atoms: _597  and  _598
REMARK  243  A    between atoms: _597  and  _600
REMARK  244  A    between atoms: _600  and  _601
REMARK  245  A    between atoms: _601  and  _602
REMARK  246  A    between atoms: _607  and  _609
REMARK  247  A    between atoms: _609  and  _610
REMARK  248  A    between atoms: _609  and  _612
REMARK  249  A    between atoms: _612  and  _613
REMARK  250  A    between atoms: _613  and  _614
REMARK  251  A    between atoms: _614  and  _615
REMARK  252  A    between atoms: _615  and  _616
REMARK  253  A    between atoms: _620  and  _622
REMARK  254  A    between atoms: _622  and  _623
REMARK  255  A    between atoms: _622  and  _625
REMARK  256  A    between atoms: _625  and  _626
REMARK  257  A    between atoms: _626  and  _627
REMARK  258  A    between atoms: _627  and  _628
REMARK  259  A    between atoms: _628  and  _629
REMARK  260  A    between atoms: _633  and  _635
REMARK  261  A    between atoms: _635  and  _636
REMARK  262  A    between atoms: _635  and  _638
REMARK  263  A    between atoms: _638  and  _639
REMARK  264  A    between atoms: _643  and  _644
REMARK  265  A    between atoms: _649  and  _651
REMARK  266  A    between atoms: _651  and  _652
REMARK  267  A    between atoms: _651  and  _654
REMARK  268  A    between atoms: _654  and  _655
REMARK  269  A    between atoms: _658  and  _660
REMARK  270  A    between atoms: _660  and  _661
REMARK  271  A    between atoms: _660  and  _663
REMARK  272  A    between atoms: _663  and  _664
REMARK  273  A    between atoms: _666  and  _668
REMARK  274  A    between atoms: _668  and  _669
REMARK  275  A    between atoms: _668  and  _671
REMARK  276  A    between atoms: _671  and  _672
REMARK                            x       y       z     vdW  Elec       q    Type
REMARK                         _______ _______ _______ _____ _____    ______ ____
ROOT
ATOM      1  CB  PHE A   1      26.328 -15.954  10.842  0.00  0.00    +0.051 C 
ENDROOT
BRANCH   1   2
ATOM      2  CG  PHE A   1      25.122 -16.617  11.457  0.00  0.00    -0.020 A 
ATOM      3  CD2 PHE A   1      25.246 -17.367  12.630  0.00  0.00    -0.004 A 
ATOM      4  CE2 PHE A   1      24.146 -17.995  13.197  0.00  0.00    -0.000 A 
ATOM      5  CZ  PHE A   1      22.903 -17.896  12.588  0.00  0.00    -0.000 A 
ATOM      6  CE1 PHE A   1      22.765 -17.166  11.413  0.00  0.00    -0.000 A 
ATOM      7  CD1 PHE A   1      23.876 -16.537  10.850  0.00  0.00    -0.004 A 
ENDBRANCH   1   2
BRANCH   1   8
ATOM      8  CA  PHE A   1      26.210 -14.431  10.698  0.00  0.00    +0.137 C 
BRANCH   8   9
ATOM      9  N   PHE A   1      25.526 -14.065   9.452  0.00  0.00    -0.239 NA
ATOM     10  H   PHE A   1      25.256 -14.819   8.789  0.00  0.00    +0.142 HD
ENDBRANCH   8   9
BRANCH   8  11
ATOM     11  C   PHE A   1      27.603 -13.817  10.765  0.00  0.00    +0.224 C 
ATOM     12  O   PHE A   1      28.000 -13.285  11.799  0.00  0.00    -0.287 OA
ENDBRANCH   8  11
ENDBRANCH   1   8
TORSDOF 4
REMARK  Name = ../refined-set-2016/3ipu/3ipu_pocket.pdb
REMARK  276 active torsions:
REMARK  status: ('A' for Active; 'I' for Inactive)
REMARK    1  A    between atoms: _1  and  _3
REMARK    2  A    between atoms: _3  and  _4
REMARK    3  A    between atoms: _3  and  _6
REMARK    4  A    between atoms: _6  and  _7
REMARK    5  A    between atoms: _12  and  _14
REMARK    6  A    between atoms: _14  and  _15
REMARK    7  A    between atoms: _14  and  _17
REMARK    8  A    between atoms: _17  and  _18
REMARK    9  A    between atoms: _18  and  _19
REMARK   10  A    between atoms: _19  and  _20
REMARK   11  A    between atoms: _29  and  _31
REMARK   12  A    between atoms: _31  and  _32
REMARK   13  A    between atoms: _31  and  _34
REMARK   14  A    between atoms: _34  and  _35
REMARK   15  A    between atoms: _37  and  _39
REMARK   16  A    between atoms: _39  and  _40
REMARK   17  A    between atoms: _39  and  _42
REMARK   18  A    between atoms: _42  and  _43
REMARK   19  A    between atoms: _49  and  _51
REMARK   20  A    between atoms: _51  and  _52
REMARK   21  A    between atoms: _51  and  _54
REMARK   22  A    between atoms: _54  and  _55
REMARK   23  A    between atoms: _55  and  _56
REMARK   24  A    between atoms: _56  and  _57
REMARK   25  A    between atoms: _66  and  _68
REMARK   26  A    between atoms: _68  and  _69
REMARK   27  A    between atoms: _68  and  _71
REMARK   28  A    between atoms: _71  and  _72
REMARK   29  A    between atoms: _75  and  _77
REMARK   30  A    between atoms: _77  and  _78
REMARK   31  A    between atoms: _77  and  _80
REMARK   32  A    between atoms: _83  and  _85
REMARK   33  A    between atoms: _85  and  _86
REMARK   34  A    between atoms: _85  and  _88
REMARK   35  A    between atoms: _88  and  _89
REMARK   36  A    between atoms: _89  and  _90
REMARK   37  A    between atoms: _90  and  _91
REMARK   38  A    between atoms: _100  and  _102
REMARK   39  A    between atoms: _102  and  _103
REMARK   40  A    between atoms: _102  and  _105
REMARK   41  A    between atoms: _105  and  _106
REMARK   42  A    between atoms: _112  and  _114
REMARK   43  A    between atoms: _114  and  _115
REMARK   44  A    between atoms: _118  and  _120
REMARK   45  A    between atoms: _120  and  _121
REMARK   46  A    between atoms: _120  and  _123
REMARK   47  A    between atoms: _123  and  _124
REMARK   48  A    between atoms: _129  and  _131
REMARK   49  A    between atoms: _131  and  _132
REMARK   50  A    between atoms: _131  and  _134
REMARK   51  A    between atoms: _134  and  _135
REMARK   52  A    between atoms: _141  and  _143
REMARK   53  A    between atoms: _143  and  _144
REMARK   54  A    between atoms: _143  and  _146
REMARK   55  A    between atoms: _146  and  _147
REMARK   56  A    between atoms: _150  and  _152
REMARK   57  A    between atoms: _152  and  _153
REMARK   58  A    between atoms: _152  and  _155
REMARK   59  A    between atoms: _155  and  _156
REMARK   60  A    between atoms: _156  and  _157
REMARK   61  A    between atoms: _160  and  _162
REMARK   62  A    between atoms: _162  and  _163
REMARK   63  A    between atoms: _162  and  _165
REMARK   64  A    between atoms: _165  and  _166
REMARK   65  A    between atoms: _169  and  _171
REMARK   66  A    between atoms: _171  and  _172
REMARK   67  A    between atoms: _175  and  _177
REMARK   68  A    between atoms: _177  and  _178
REMARK   69  A    between atoms: _177  and  _180
REMARK   70  A    between atoms: _180  and  _181
REMARK   71  A    between atoms: _184  and  _186
REMARK   72  A    between atoms: _186  and  _187
REMARK   73  A    between atoms: _186  and  _189
REMARK   74  A    between atoms: _192  and  _194
REMARK   75  A    between atoms: _194  and  _195
REMARK   76  A    between atoms: _194  and  _197
REMARK   77  A    between atoms: _197  and  _198
REMARK   78  A    between atoms: _200  and  _202
REMARK   79  A    between atoms: _202  and  _203
REMARK   80  A    between atoms: _202  and  _205
REMARK   81  A    between atoms: _208  and  _210
REMARK   82  A    between atoms: _210  and  _211
REMARK   83  A    between atoms: _210  and  _213
REMARK   84  A    between atoms: _213  and  _214
REMARK   85  A    between atoms: _214  and  _215
REMARK   86  A    between atoms: _218  and  _220
REMARK   87  A    between atoms: _220  and  _221
REMARK   88  A    between atoms: _220  and  _223
REMARK   89  A    between atoms: _223  and  _224
REMARK   90  A    between atoms: _227  and  _229
REMARK   91  A    between atoms: _229  and  _230
REMARK   92  A    between atoms: _233  and  _235
REMARK   93  A    between atoms: _235  and  _236
REMARK   94  A    between atoms: _235  and  _238
REMARK   95  A    between atoms: _238  and  _239
REMARK   96  A    between atoms: _242  and  _244
REMARK   97  A    between atoms: _244  and  _245
REMARK   98  A    between atoms: _244  and  _247
REMARK   99  A    between atoms: _247  and  _248
REMARK  100  A    between atoms: _248  and  _249
REMARK  101  A    between atoms: _252  and  _254
REMARK  102  A    between atoms: _254  and  _255
REMARK  103  A    between atoms: _254  and  _257
REMARK  104  A    between atoms: _260  and  _262
REMARK  105  A    between atoms: _262  and  _263
REMARK  106  A    between atoms: _262  and  _265
REMARK  107  A    between atoms: _265  and  _266
REMARK  108  A    between atoms: _266  and  _267
REMARK  109  A    between atoms: _269  and  _271
REMARK  110  A    between atoms: _271  and  _272
REMARK  111  A    between atoms: _271  and  _274
REMARK  112  A    between atoms: _274  and  _275
REMARK  113  A    between atoms: _278  and  _280
REMARK  114  A    between atoms: _280  and  _281
REMARK  115  A    between atoms: _280  and  _283
REMARK  116  A    between atoms: _283  and  _284
REMARK  117  A    between atoms: _287  and  _289
REMARK  118  A    between atoms: _289  and  _290
REMARK  119  A    between atoms: _289  and  _292
REMARK  120  A    between atoms: _292  and  _293
REMARK  121  A    between atoms: _293  and  _294
REMARK  122  A    between atoms: _297  and  _299
REMARK  123  A    between atoms: _299  and  _300
REMARK  124  A    between atoms: _299  and  _302
REMARK  125  A    between atoms: _302  and  _303
REMARK  126  A    between atoms: _306  and  _308
REMARK  127  A    between atoms: _308  and  _309
REMARK  128  A    between atoms: _308  and  _311
REMARK  129  A    between atoms: _311  and  _312
REMARK  130  A    between atoms: _314  and  _316
REMARK  131  A    between atoms: _316  and  _317
REMARK  132  A    between atoms: _316  and  _319
REMARK  133  A    between atoms: _319  and  _320
REMARK  134  A    between atoms: _320  and  _321
REMARK  135  A    between atoms: _321  and  _322
REMARK  136  A    between atoms: _331  and  _333
REMARK  137  A    between atoms: _333  and  _334
REMARK  138  A    between atoms: _333  and  _336
REMARK  139  A    between atoms: _336  and  _337
REMARK  140  A    between atoms: _337  and  _338
REMARK  141  A    between atoms: _338  and  _339
REMARK  142  A    between atoms: _348  and  _350
REMARK  143  A    between atoms: _350  and  _351
REMARK  144  A    between atoms: _350  and  _353
REMARK  145  A    between atoms: _353  and  _354
REMARK  146  A    between atoms: _357  and  _359
REMARK  147  A    between atoms: _359  and  _360
REMARK  148  A    between atoms: _359  and  _362
REMARK  149  A    between atoms: _362  and  _363
REMARK  150  A    between atoms: _366  and  _368
REMARK  151  A    between atoms: _368  and  _369
REMARK  152  A    between atoms: _368  and  _371
REMARK  153  A    between atoms: _371  and  _372
REMARK  154  A    between atoms: _378  and  _380
REMARK  155  A    between atoms: _380  and  _381
REMARK  156  A    between atoms: _380  and  _383
REMARK  157  A    between atoms: _383  and  _384
REMARK  158  A    between atoms: _387  and  _389
REMARK  159  A    between atoms: _389  and  _390
REMARK  160  A    between atoms: _389  and  _392
REMARK  161  A    between atoms: _392  and  _393
REMARK  162  A    between atoms: _393  and  _394
REMARK  163  A    between atoms: _394  and  _395
REMARK  164  A    between atoms: _395  and  _396
REMARK  165  A    between atoms: _400  and  _402
REMARK  166  A    between atoms: _402  and  _403
REMARK  167  A    between atoms: _402  and  _405
REMARK  168  A    between atoms: _405  and  _406
REMARK  169  A    between atoms: _409  and  _411
REMARK  170  A    between atoms: _411  and  _412
REMARK  171  A    between atoms: _411  and  _414
REMARK  172  A    between atoms: _414  and  _415
REMARK  173  A    between atoms: _421  and  _423
REMARK  174  A    between atoms: _423  and  _424
REMARK  175  A    between atoms: _423  and  _426
REMARK  176  A    between atoms: _426  and  _427
REMARK  177  A    between atoms: _432  and  _433
REMARK  178  A    between atoms: _435  and  _437
REMARK  179  A    between atoms: _437  and  _438
REMARK  180  A    between atoms: _437  and  _440
REMARK  181  A    between atoms: _440  and  _441
REMARK  182  A    between atoms: _447  and  _449
REMARK  183  A    between atoms: _449  and  _450
REMARK  184  A    between atoms: _453  and  _455
REMARK  185  A    between atoms: _455  and  _456
REMARK  186  A    between atoms: _458  and  _460
REMARK  187  A    between atoms: _460  and  _461
REMARK  188  A    between atoms: _460  and  _463
REMARK  189  A    between atoms: _463  and  _464
REMARK  190  A    between atoms: _467  and  _469
REMARK  191  A    between atoms: _469  and  _470
REMARK  192  A    between atoms: _469  and  _472
REMARK  193  A    between atoms: _472  and  _473
REMARK  194  A    between atoms: _473  and  _474
REMARK  195  A    between atoms: _479  and  _481
REMARK  196  A    between atoms: _481  and  _482
REMARK  197  A    between atoms: _481  and  _484
REMARK  198  A    between atoms: _484  and  _485
REMARK  199  A    between atoms: _491  and  _493
REMARK  200  A    between atoms: _493  and  _494
REMARK  201  A    between atoms: _493  and  _496
REMARK  202  A    between atoms: _496  and  _497
REMARK  203  A    between atoms: _500  and  _502
REMARK  204  A    between atoms: _502  and  _503
REMARK  205  A    between atoms: _502  and  _505
REMARK  206  A    between atoms: _505  and  _506
REMARK  207  A    between atoms: _512  and  _514
REMARK  208  A    between atoms: _514  and  _515
REMARK  209  A    between atoms: _514  and  _517
REMARK  210  A    between atoms: _517  and  _518
REMARK  211  A    between atoms: _520  and  _522
REMARK  212  A    between atoms: _522  and  _523
REMARK  213  A    between atoms: _522  and  _525
REMARK  214  A    between atoms: _525  and  _526
REMARK  215  A    between atoms: _529  and  _531
REMARK  216  A    between atoms: _531  and  _532
REMARK  217  A    between atoms: _531  and  _534
REMARK  218  A    between atoms: _534  and  _535
REMARK  219  A    between atoms: _540  and  _542
REMARK  220  A    between atoms: _542  and  _543
REMARK  221  A    between atoms: _542  and  _545
REMARK  222  A    between atoms: _545  and  _546
REMARK  223  A    between atoms: _548  and  _550
REMARK  224  A    between atoms: _550  and  _551
REMARK  225  A    between atoms: _550  and  _553
REMARK  226  A    between atoms: _553  and  _554
REMARK  227  A    between atoms: _554  and  _555
REMARK  228  A    between atoms: _560  and  _562
REMARK  229  A    between atoms: _562  and  _563
REMARK  230  A    between atoms: _562  and  _565
REMARK  231  A    between atoms: _568  and  _570
REMARK  232  A    between atoms: _570  and  _571
REMARK  233  A    between atoms: _570  and  _573
REMARK  234  A    between atoms: _573  and  _574
REMARK  235  A    between atoms: _580  and  _582
REMARK  236  A    between atoms: _582  and  _583
REMARK  237  A    between atoms: _586  and  _588
REMARK  238  A    between atoms: _588  and  _589
REMARK  239  A    between atoms: _588  and  _591
REMARK  240  A    between atoms: _591  and  _592
REMARK  241  A    between atoms: _595  and  _597
REMARK  242  A    between atoms: _597  and  _598
REMARK  243  A    between atoms: _597  and  _600
REMARK  244  A    between atoms: _600  and  _601
REMARK  245  A    between atoms: _601  and  _602
REMARK  246  A    between atoms: _607  and  _609
REMARK  247  A    between atoms: _609  and  _610
REMARK  248  A    between atoms: _609  and  _612
REMARK  249  A    between atoms: _612  and  _613
REMARK  250  A    between atoms: _613  and  _614
REMARK  251  A    between atoms: _614  and  _615
REMARK  252  A    between atoms: _615  and  _616
REMARK  253  A    between atoms: _620  and  _622
REMARK  254  A    between atoms: _622  and  _623
REMARK  255  A    between atoms: _622  and  _625
REMARK  256  A    between atoms: _625  and  _626
REMARK  257  A    between atoms: _626  and  _627
REMARK  258  A    between atoms: _627  and  _628
REMARK  259  A    between atoms: _628  and  _629
REMARK  260  A    between atoms: _633  and  _635
REMARK  261  A    between atoms: _635  and  _636
REMARK  262  A    between atoms: _635  and  _638
REMARK  263  A    between atoms: _638  and  _639
REMARK  264  A    between atoms: _643  and  _644
REMARK  265  A    between atoms: _649  and  _651
REMARK  266  A    between atoms: _651  and  _652
REMARK  267  A    between atoms: _651  and  _654
REMARK  268  A    between atoms: _654  and  _655
REMARK  269  A    between atoms: _658  and  _660
REMARK  270  A    between atoms: _660  and  _661
REMARK  271  A    between atoms: _660  and  _663
REMARK  272  A    between atoms: _663  and  _664
REMARK  273  A    between atoms: _666  and  _668
REMARK  274  A    between atoms: _668  and  _669
REMARK  275  A    between atoms: _668  and  _671
REMARK  276  A    between atoms: _671  and  _672
REMARK                            x       y       z     vdW  Elec       q    Type
REMARK                         _______ _______ _______ _____ _____    ______ ____
ROOT
ATOM      1  CA  LEU A   3      30.753 -14.473  14.171  0.00  0.00    +0.149 C 
ENDROOT
BRANCH   1   4
ATOM      2  C   GLY A   2      31.042 -12.053  14.381  0.00  0.00    +0.243 C 
ATOM      3  O   GLY A   2      32.088 -12.178  15.032  0.00  0.00    -0.273 OA
ATOM      4  N   LEU A   3      30.364 -13.092  13.892  0.00  0.00    -0.297 N 
ATOM      5  H   LEU A   3      29.532 -12.914  13.293  0.00  0.00    +0.150 HD
BRANCH   2   6
ATOM      6  CA  GLY A   2      30.471 -10.667  14.101  0.00  0.00    +0.176 C 
BRANCH   6   9
ATOM      7  C   ALA A   1      28.066 -10.254  13.775  0.00  0.00    +0.238 C 
ATOM      8  O   ALA A   1      27.868 -10.068  14.972  0.00  0.00    -0.274 OA
ATOM      9  N   GLY A   2      29.245 -10.635  13.286  0.00  0.00    -0.296 N 
ATOM     10  H   GLY A   2      29.302 -10.922  12.288  0.00  0.00    +0.150 HD
BRANCH   7  11
ATOM     11  CA  ALA A   1      26.923 -10.060  12.774  0.00  0.00    +0.145 C 
ATOM     12  CB  ALA A   1      25.740 -10.954  13.128  0.00  0.00    +0.028 C 
BRANCH  11  13
ATOM     13  N   ALA A   1      27.343 -10.284  11.390  0.00  0.00    -0.238 NA
ATOM     14  H   ALA A   1      27.152 -11.207  10.950  0.00  0.00    +0.142 HD
ENDBRANCH  11  13
ENDBRANCH   7  11
ENDBRANCH   6   9
ENDBRANCH   2   6
ENDBRANCH   1   4
BRANCH   1  15
ATOM     15  C   LEU A   3      31.803 -14.941  13.150  0.00  0.00    +0.241 C 
ATOM     16  N   GLN A   4      32.751 -15.764  13.593  0.00  0.00    -0.298 N 
ATOM     17  H   GLN A   4      32.749 -16.049  14.593  0.00  0.00    +0.150 HD
ATOM     18  O   LEU A   3      31.772 -14.546  11.998  0.00  0.00    -0.273 OA
BRANCH  16  19
ATOM     19  CA  GLN A   4      33.800 -16.280  12.704  0.00  0.00    +0.137 C 
BRANCH  19  20
ATOM     20  C   GLN A   4      33.314 -17.549  12.003  0.00  0.00    +0.227 C 
ATOM     21  O   GLN A   4      32.436 -18.254  12.523  0.00  0.00    -0.286 OA
ENDBRANCH  19  20
BRANCH  19  22
ATOM     22  CB  GLN A   4      35.116 -16.504  13.470  0.00  0.00    +0.037 C 
BRANCH  22  23
ATOM     23  CG  GLN A   4      35.084 -17.559  14.574  0.00  0.00    +0.087 C 
BRANCH  23  24
ATOM     24  CD  GLN A   4      36.392 -17.642  15.350  0.00  0.00    +0.219 C 
ATOM     25  NE2 GLN A   4      36.524 -18.664  16.190  0.00  0.00    -0.329 N 
ATOM     26 HE21 GLN A   4      37.394 -18.767  16.751  0.00  0.00    +0.145 HD
ATOM     27 HE22 GLN A   4      35.758 -19.361  16.286  0.00  0.00    +0.145 HD
ATOM     28  OE1 GLN A   4      37.265 -16.794  15.200  0.00  0.00    -0.275 OA
ENDBRANCH  23  24
ENDBRANCH  22  23
ENDBRANCH  19  22
ENDBRANCH  16  19
ENDBRANCH   1  15
BRANCH   1  29
ATOM     29  CB  LEU A   3      29.508 -15.385  14.182  0.00  0.00    +0.029 C 
BRANCH  29  30
ATOM     30  CG  LEU A   3      28.589 -15.277  15.420  0.00  0.00    +0.002 C 
ATOM     31  CD2 LEU A   3      27.904 -13.894  15.550  0.00  0.00    +0.000 C 
ATOM     32  CD1 LEU A   3      27.539 -16.382  15.420  0.00  0.00    +0.000 C 
ENDBRANCH  29  30
ENDBRANCH   1  29
TORSDOF 13
REMARK  Name = ../refined-set-2016/3ipu/3ipu_pocket.pdb
REMARK  276 active torsions:
REMARK  status: ('A' for Active; 'I' for Inactive)
REMARK    1  A    between atoms: _1  and  _3
REMARK    2  A    between atoms: _3  and  _4
REMARK    3  A    between atoms: _3  and  _6
REMARK    4  A    between atoms: _6  and  _7
REMARK    5  A    between atoms: _12  and  _14
REMARK    6  A    between atoms: _14  and  _15
REMARK    7  A    between atoms: _14  and  _17
REMARK    8  A    between atoms: _17  and  _18
REMARK    9  A    between atoms: _18  and  _19
REMARK   10  A    between atoms: _19  and  _20
REMARK   11  A    between atoms: _29  and  _31
REMARK   12  A    between atoms: _31  and  _32
REMARK   13  A    between atoms: _31  and  _34
REMARK   14  A    between atoms: _34  and  _35
REMARK   15  A    between atoms: _37  and  _39
REMARK   16  A    between atoms: _39  and  _40
REMARK   17  A    between atoms: _39  and  _42
REMARK   18  A    between atoms: _42  and  _43
REMARK   19  A    between atoms: _49  and  _51
REMARK   20  A    between atoms: _51  and  _52
REMARK   21  A    between atoms: _51  and  _54
REMARK   22  A    between atoms: _54  and  _55
REMARK   23  A    between atoms: _55  and  _56
REMARK   24  A    between atoms: _56  and  _57
REMARK   25  A    between atoms: _66  and  _68
REMARK   26  A    between atoms: _68  and  _69
REMARK   27  A    between atoms: _68  and  _71
REMARK   28  A    between atoms: _71  and  _72
REMARK   29  A    between atoms: _75  and  _77
REMARK   30  A    between atoms: _77  and  _78
REMARK   31  A    between atoms: _77  and  _80
REMARK   32  A    between atoms: _83  and  _85
REMARK   33  A    between atoms: _85  and  _86
REMARK   34  A    between atoms: _85  and  _88
REMARK   35  A    between atoms: _88  and  _89
REMARK   36  A    between atoms: _89  and  _90
REMARK   37  A    between atoms: _90  and  _91
REMARK   38  A    between atoms: _100  and  _102
REMARK   39  A    between atoms: _102  and  _103
REMARK   40  A    between atoms: _102  and  _105
REMARK   41  A    between atoms: _105  and  _106
REMARK   42  A    between atoms: _112  and  _114
REMARK   43  A    between atoms: _114  and  _115
REMARK   44  A    between atoms: _118  and  _120
REMARK   45  A    between atoms: _120  and  _121
REMARK   46  A    between atoms: _120  and  _123
REMARK   47  A    between atoms: _123  and  _124
REMARK   48  A    between atoms: _129  and  _131
REMARK   49  A    between atoms: _131  and  _132
REMARK   50  A    between atoms: _131  and  _134
REMARK   51  A    between atoms: _134  and  _135
REMARK   52  A    between atoms: _141  and  _143
REMARK   53  A    between atoms: _143  and  _144
REMARK   54  A    between atoms: _143  and  _146
REMARK   55  A    between atoms: _146  and  _147
REMARK   56  A    between atoms: _150  and  _152
REMARK   57  A    between atoms: _152  and  _153
REMARK   58  A    between atoms: _152  and  _155
REMARK   59  A    between atoms: _155  and  _156
REMARK   60  A    between atoms: _156  and  _157
REMARK   61  A    between atoms: _160  and  _162
REMARK   62  A    between atoms: _162  and  _163
REMARK   63  A    between atoms: _162  and  _165
REMARK   64  A    between atoms: _165  and  _166
REMARK   65  A    between atoms: _169  and  _171
REMARK   66  A    between atoms: _171  and  _172
REMARK   67  A    between atoms: _175  and  _177
REMARK   68  A    between atoms: _177  and  _178
REMARK   69  A    between atoms: _177  and  _180
REMARK   70  A    between atoms: _180  and  _181
REMARK   71  A    between atoms: _184  and  _186
REMARK   72  A    between atoms: _186  and  _187
REMARK   73  A    between atoms: _186  and  _189
REMARK   74  A    between atoms: _192  and  _194
REMARK   75  A    between atoms: _194  and  _195
REMARK   76  A    between atoms: _194  and  _197
REMARK   77  A    between atoms: _197  and  _198
REMARK   78  A    between atoms: _200  and  _202
REMARK   79  A    between atoms: _202  and  _203
REMARK   80  A    between atoms: _202  and  _205
REMARK   81  A    between atoms: _208  and  _210
REMARK   82  A    between atoms: _210  and  _211
REMARK   83  A    between atoms: _210  and  _213
REMARK   84  A    between atoms: _213  and  _214
REMARK   85  A    between atoms: _214  and  _215
REMARK   86  A    between atoms: _218  and  _220
REMARK   87  A    between atoms: _220  and  _221
REMARK   88  A    between atoms: _220  and  _223
REMARK   89  A    between atoms: _223  and  _224
REMARK   90  A    between atoms: _227  and  _229
REMARK   91  A    between atoms: _229  and  _230
REMARK   92  A    between atoms: _233  and  _235
REMARK   93  A    between atoms: _235  and  _236
REMARK   94  A    between atoms: _235  and  _238
REMARK   95  A    between atoms: _238  and  _239
REMARK   96  A    between atoms: _242  and  _244
REMARK   97  A    between atoms: _244  and  _245
REMARK   98  A    between atoms: _244  and  _247
REMARK   99  A    between atoms: _247  and  _248
REMARK  100  A    between atoms: _248  and  _249
REMARK  101  A    between atoms: _252  and  _254
REMARK  102  A    between atoms: _254  and  _255
REMARK  103  A    between atoms: _254  and  _257
REMARK  104  A    between atoms: _260  and  _262
REMARK  105  A    between atoms: _262  and  _263
REMARK  106  A    between atoms: _262  and  _265
REMARK  107  A    between atoms: _265  and  _266
REMARK  108  A    between atoms: _266  and  _267
REMARK  109  A    between atoms: _269  and  _271
REMARK  110  A    between atoms: _271  and  _272
REMARK  111  A    between atoms: _271  and  _274
REMARK  112  A    between atoms: _274  and  _275
REMARK  113  A    between atoms: _278  and  _280
REMARK  114  A    between atoms: _280  and  _281
REMARK  115  A    between atoms: _280  and  _283
REMARK  116  A    between atoms: _283  and  _284
REMARK  117  A    between atoms: _287  and  _289
REMARK  118  A    between atoms: _289  and  _290
REMARK  119  A    between atoms: _289  and  _292
REMARK  120  A    between atoms: _292  and  _293
REMARK  121  A    between atoms: _293  and  _294
REMARK  122  A    between atoms: _297  and  _299
REMARK  123  A    between atoms: _299  and  _300
REMARK  124  A    between atoms: _299  and  _302
REMARK  125  A    between atoms: _302  and  _303
REMARK  126  A    between atoms: _306  and  _308
REMARK  127  A    between atoms: _308  and  _309
REMARK  128  A    between atoms: _308  and  _311
REMARK  129  A    between atoms: _311  and  _312
REMARK  130  A    between atoms: _314  and  _316
REMARK  131  A    between atoms: _316  and  _317
REMARK  132  A    between atoms: _316  and  _319
REMARK  133  A    between atoms: _319  and  _320
REMARK  134  A    between atoms: _320  and  _321
REMARK  135  A    between atoms: _321  and  _322
REMARK  136  A    between atoms: _331  and  _333
REMARK  137  A    between atoms: _333  and  _334
REMARK  138  A    between atoms: _333  and  _336
REMARK  139  A    between atoms: _336  and  _337
REMARK  140  A    between atoms: _337  and  _338
REMARK  141  A    between atoms: _338  and  _339
REMARK  142  A    between atoms: _348  and  _350
REMARK  143  A    between atoms: _350  and  _351
REMARK  144  A    between atoms: _350  and  _353
REMARK  145  A    between atoms: _353  and  _354
REMARK  146  A    between atoms: _357  and  _359
REMARK  147  A    between atoms: _359  and  _360
REMARK  148  A    between atoms: _359  and  _362
REMARK  149  A    between atoms: _362  and  _363
REMARK  150  A    between atoms: _366  and  _368
REMARK  151  A    between atoms: _368  and  _369
REMARK  152  A    between atoms: _368  and  _371
REMARK  153  A    between atoms: _371  and  _372
REMARK  154  A    between atoms: _378  and  _380
REMARK  155  A    between atoms: _380  and  _381
REMARK  156  A    between atoms: _380  and  _383
REMARK  157  A    between atoms: _383  and  _384
REMARK  158  A    between atoms: _387  and  _389
REMARK  159  A    between atoms: _389  and  _390
REMARK  160  A    between atoms: _389  and  _392
REMARK  161  A    between atoms: _392  and  _393
REMARK  162  A    between atoms: _393  and  _394
REMARK  163  A    between atoms: _394  and  _395
REMARK  164  A    between atoms: _395  and  _396
REMARK  165  A    between atoms: _400  and  _402
REMARK  166  A    between atoms: _402  and  _403
REMARK  167  A    between atoms: _402  and  _405
REMARK  168  A    between atoms: _405  and  _406
REMARK  169  A    between atoms: _409  and  _411
REMARK  170  A    between atoms: _411  and  _412
REMARK  171  A    between atoms: _411  and  _414
REMARK  172  A    between atoms: _414  and  _415
REMARK  173  A    between atoms: _421  and  _423
REMARK  174  A    between atoms: _423  and  _424
REMARK  175  A    between atoms: _423  and  _426
REMARK  176  A    between atoms: _426  and  _427
REMARK  177  A    between atoms: _432  and  _433
REMARK  178  A    between atoms: _435  and  _437
REMARK  179  A    between atoms: _437  and  _438
REMARK  180  A    between atoms: _437  and  _440
REMARK  181  A    between atoms: _440  and  _441
REMARK  182  A    between atoms: _447  and  _449
REMARK  183  A    between atoms: _449  and  _450
REMARK  184  A    between atoms: _453  and  _455
REMARK  185  A    between atoms: _455  and  _456
REMARK  186  A    between atoms: _458  and  _460
REMARK  187  A    between atoms: _460  and  _461
REMARK  188  A    between atoms: _460  and  _463
REMARK  189  A    between atoms: _463  and  _464
REMARK  190  A    between atoms: _467  and  _469
REMARK  191  A    between atoms: _469  and  _470
REMARK  192  A    between atoms: _469  and  _472
REMARK  193  A    between atoms: _472  and  _473
REMARK  194  A    between atoms: _473  and  _474
REMARK  195  A    between atoms: _479  and  _481
REMARK  196  A    between atoms: _481  and  _482
REMARK  197  A    between atoms: _481  and  _484
REMARK  198  A    between atoms: _484  and  _485
REMARK  199  A    between atoms: _491  and  _493
REMARK  200  A    between atoms: _493  and  _494
REMARK  201  A    between atoms: _493  and  _496
REMARK  202  A    between atoms: _496  and  _497
REMARK  203  A    between atoms: _500  and  _502
REMARK  204  A    between atoms: _502  and  _503
REMARK  205  A    between atoms: _502  and  _505
REMARK  206  A    between atoms: _505  and  _506
REMARK  207  A    between atoms: _512  and  _514
REMARK  208  A    between atoms: _514  and  _515
REMARK  209  A    between atoms: _514  and  _517
REMARK  210  A    between atoms: _517  and  _518
REMARK  211  A    between atoms: _520  and  _522
REMARK  212  A    between atoms: _522  and  _523
REMARK  213  A    between atoms: _522  and  _525
REMARK  214  A    between atoms: _525  and  _526
REMARK  215  A    between atoms: _529  and  _531
REMARK  216  A    between atoms: _531  and  _532
REMARK  217  A    between atoms: _531  and  _534
REMARK  218  A    between atoms: _534  and  _535
REMARK  219  A    between atoms: _540  and  _542
REMARK  220  A    between atoms: _542  and  _543
REMARK  221  A    between atoms: _542  and  _545
REMARK  222  A    between atoms: _545  and  _546
REMARK  223  A    between atoms: _548  and  _550
REMARK  224  A    between atoms: _550  and  _551
REMARK  225  A    between atoms: _550  and  _553
REMARK  226  A    between atoms: _553  and  _554
REMARK  227  A    between atoms: _554  and  _555
REMARK  228  A    between atoms: _560  and  _562
REMARK  229  A    between atoms: _562  and  _563
REMARK  230  A    between atoms: _562  and  _565
REMARK  231  A    between atoms: _568  and  _570
REMARK  232  A    between atoms: _570  and  _571
REMARK  233  A    between atoms: _570  and  _573
REMARK  234  A    between atoms: _573  and  _574
REMARK  235  A    between atoms: _580  and  _582
REMARK  236  A    between atoms: _582  and  _583
REMARK  237  A    between atoms: _586  and  _588
REMARK  238  A    between atoms: _588  and  _589
REMARK  239  A    between atoms: _588  and  _591
REMARK  240  A    between atoms: _591  and  _592
REMARK  241  A    between atoms: _595  and  _597
REMARK  242  A    between atoms: _597  and  _598
REMARK  243  A    between atoms: _597  and  _600
REMARK  244  A    between atoms: _600  and  _601
REMARK  245  A    between atoms: _601  and  _602
REMARK  246  A    between atoms: _607  and  _609
REMARK  247  A    between atoms: _609  and  _610
REMARK  248  A    between atoms: _609  and  _612
REMARK  249  A    between atoms: _612  and  _613
REMARK  250  A    between atoms: _613  and  _614
REMARK  251  A    between atoms: _614  and  _615
REMARK  252  A    between atoms: _615  and  _616
REMARK  253  A    between atoms: _620  and  _622
REMARK  254  A    between atoms: _622  and  _623
REMARK  255  A    between atoms: _622  and  _625
REMARK  256  A    between atoms: _625  and  _626
REMARK  257  A    between atoms: _626  and  _627
REMARK  258  A    between atoms: _627  and  _628
REMARK  259  A    between atoms: _628  and  _629
REMARK  260  A    between atoms: _633  and  _635
REMARK  261  A    between atoms: _635  and  _636
REMARK  262  A    between atoms: _635  and  _638
REMARK  263  A    between atoms: _638  and  _639
REMARK  264  A    between atoms: _643  and  _644
REMARK  265  A    between atoms: _649  and  _651
REMARK  266  A    between atoms: _651  and  _652
REMARK  267  A    between atoms: _651  and  _654
REMARK  268  A    between atoms: _654  and  _655
REMARK  269  A    between atoms: _658  and  _660
REMARK  270  A    between atoms: _660  and  _661
REMARK  271  A    between atoms: _660  and  _663
REMARK  272  A    between atoms: _663  and  _664
REMARK  273  A    between atoms: _666  and  _668
REMARK  274  A    between atoms: _668  and  _669
REMARK  275  A    between atoms: _668  and  _671
REMARK  276  A    between atoms: _671  and  _672
REMARK                            x       y       z     vdW  Elec       q    Type
REMARK                         _______ _______ _______ _____ _____    ______ ____
ROOT
ATOM      1  CB  PHE A   1      31.673 -20.257  15.348  0.00  0.00    +0.051 C 
ENDROOT
BRANCH   1   2
ATOM      2  CG  PHE A   1      30.587 -20.491  16.359  0.00  0.00    -0.020 A 
ATOM      3  CD2 PHE A   1      29.912 -19.413  16.903  0.00  0.00    -0.004 A 
ATOM      4  CE2 PHE A   1      28.917 -19.601  17.841  0.00  0.00    -0.000 A 
ATOM      5  CZ  PHE A   1      28.599 -20.889  18.273  0.00  0.00    -0.000 A 
ATOM      6  CE1 PHE A   1      29.265 -21.975  17.751  0.00  0.00    -0.000 A 
ATOM      7  CD1 PHE A   1      30.264 -21.778  16.804  0.00  0.00    -0.004 A 
ENDBRANCH   1   2
BRANCH   1   8
ATOM      8  CA  PHE A   1      31.788 -21.340  14.261  0.00  0.00    +0.137 C 
BRANCH   8   9
ATOM      9  N   PHE A   1      32.948 -21.076  13.418  0.00  0.00    -0.239 NA
ATOM     10  H   PHE A   1      33.094 -20.107  13.071  0.00  0.00    +0.142 HD
ENDBRANCH   8   9
BRANCH   8  11
ATOM     11  C   PHE A   1      30.526 -21.395  13.422  0.00  0.00    +0.224 C 
ATOM     12  O   PHE A   1      29.698 -22.296  13.603  0.00  0.00    -0.287 OA
ENDBRANCH   8  11
ENDBRANCH   1   8
TORSDOF 4
REMARK  Name = ../refined-set-2016/3ipu/3ipu_pocket.pdb
REMARK  276 active torsions:
REMARK  status: ('A' for Active; 'I' for Inactive)
REMARK    1  A    between atoms: _1  and  _3
REMARK    2  A    between atoms: _3  and  _4
REMARK    3  A    between atoms: _3  and  _6
REMARK    4  A    between atoms: _6  and  _7
REMARK    5  A    between atoms: _12  and  _14
REMARK    6  A    between atoms: _14  and  _15
REMARK    7  A    between atoms: _14  and  _17
REMARK    8  A    between atoms: _17  and  _18
REMARK    9  A    between atoms: _18  and  _19
REMARK   10  A    between atoms: _19  and  _20
REMARK   11  A    between atoms: _29  and  _31
REMARK   12  A    between atoms: _31  and  _32
REMARK   13  A    between atoms: _31  and  _34
REMARK   14  A    between atoms: _34  and  _35
REMARK   15  A    between atoms: _37  and  _39
REMARK   16  A    between atoms: _39  and  _40
REMARK   17  A    between atoms: _39  and  _42
REMARK   18  A    between atoms: _42  and  _43
REMARK   19  A    between atoms: _49  and  _51
REMARK   20  A    between atoms: _51  and  _52
REMARK   21  A    between atoms: _51  and  _54
REMARK   22  A    between atoms: _54  and  _55
REMARK   23  A    between atoms: _55  and  _56
REMARK   24  A    between atoms: _56  and  _57
REMARK   25  A    between atoms: _66  and  _68
REMARK   26  A    between atoms: _68  and  _69
REMARK   27  A    between atoms: _68  and  _71
REMARK   28  A    between atoms: _71  and  _72
REMARK   29  A    between atoms: _75  and  _77
REMARK   30  A    between atoms: _77  and  _78
REMARK   31  A    between atoms: _77  and  _80
REMARK   32  A    between atoms: _83  and  _85
REMARK   33  A    between atoms: _85  and  _86
REMARK   34  A    between atoms: _85  and  _88
REMARK   35  A    between atoms: _88  and  _89
REMARK   36  A    between atoms: _89  and  _90
REMARK   37  A    between atoms: _90  and  _91
REMARK   38  A    between atoms: _100  and  _102
REMARK   39  A    between atoms: _102  and  _103
REMARK   40  A    between atoms: _102  and  _105
REMARK   41  A    between atoms: _105  and  _106
REMARK   42  A    between atoms: _112  and  _114
REMARK   43  A    between atoms: _114  and  _115
REMARK   44  A    between atoms: _118  and  _120
REMARK   45  A    between atoms: _120  and  _121
REMARK   46  A    between atoms: _120  and  _123
REMARK   47  A    between atoms: _123  and  _124
REMARK   48  A    between atoms: _129  and  _131
REMARK   49  A    between atoms: _131  and  _132
REMARK   50  A    between atoms: _131  and  _134
REMARK   51  A    between atoms: _134  and  _135
REMARK   52  A    between atoms: _141  and  _143
REMARK   53  A    between atoms: _143  and  _144
REMARK   54  A    between atoms: _143  and  _146
REMARK   55  A    between atoms: _146  and  _147
REMARK   56  A    between atoms: _150  and  _152
REMARK   57  A    between atoms: _152  and  _153
REMARK   58  A    between atoms: _152  and  _155
REMARK   59  A    between atoms: _155  and  _156
REMARK   60  A    between atoms: _156  and  _157
REMARK   61  A    between atoms: _160  and  _162
REMARK   62  A    between atoms: _162  and  _163
REMARK   63  A    between atoms: _162  and  _165
REMARK   64  A    between atoms: _165  and  _166
REMARK   65  A    between atoms: _169  and  _171
REMARK   66  A    between atoms: _171  and  _172
REMARK   67  A    between atoms: _175  and  _177
REMARK   68  A    between atoms: _177  and  _178
REMARK   69  A    between atoms: _177  and  _180
REMARK   70  A    between atoms: _180  and  _181
REMARK   71  A    between atoms: _184  and  _186
REMARK   72  A    between atoms: _186  and  _187
REMARK   73  A    between atoms: _186  and  _189
REMARK   74  A    between atoms: _192  and  _194
REMARK   75  A    between atoms: _194  and  _195
REMARK   76  A    between atoms: _194  and  _197
REMARK   77  A    between atoms: _197  and  _198
REMARK   78  A    between atoms: _200  and  _202
REMARK   79  A    between atoms: _202  and  _203
REMARK   80  A    between atoms: _202  and  _205
REMARK   81  A    between atoms: _208  and  _210
REMARK   82  A    between atoms: _210  and  _211
REMARK   83  A    between atoms: _210  and  _213
REMARK   84  A    between atoms: _213  and  _214
REMARK   85  A    between atoms: _214  and  _215
REMARK   86  A    between atoms: _218  and  _220
REMARK   87  A    between atoms: _220  and  _221
REMARK   88  A    between atoms: _220  and  _223
REMARK   89  A    between atoms: _223  and  _224
REMARK   90  A    between atoms: _227  and  _229
REMARK   91  A    between atoms: _229  and  _230
REMARK   92  A    between atoms: _233  and  _235
REMARK   93  A    between atoms: _235  and  _236
REMARK   94  A    between atoms: _235  and  _238
REMARK   95  A    between atoms: _238  and  _239
REMARK   96  A    between atoms: _242  and  _244
REMARK   97  A    between atoms: _244  and  _245
REMARK   98  A    between atoms: _244  and  _247
REMARK   99  A    between atoms: _247  and  _248
REMARK  100  A    between atoms: _248  and  _249
REMARK  101  A    between atoms: _252  and  _254
REMARK  102  A    between atoms: _254  and  _255
REMARK  103  A    between atoms: _254  and  _257
REMARK  104  A    between atoms: _260  and  _262
REMARK  105  A    between atoms: _262  and  _263
REMARK  106  A    between atoms: _262  and  _265
REMARK  107  A    between atoms: _265  and  _266
REMARK  108  A    between atoms: _266  and  _267
REMARK  109  A    between atoms: _269  and  _271
REMARK  110  A    between atoms: _271  and  _272
REMARK  111  A    between atoms: _271  and  _274
REMARK  112  A    between atoms: _274  and  _275
REMARK  113  A    between atoms: _278  and  _280
REMARK  114  A    between atoms: _280  and  _281
REMARK  115  A    between atoms: _280  and  _283
REMARK  116  A    between atoms: _283  and  _284
REMARK  117  A    between atoms: _287  and  _289
REMARK  118  A    between atoms: _289  and  _290
REMARK  119  A    between atoms: _289  and  _292
REMARK  120  A    between atoms: _292  and  _293
REMARK  121  A    between atoms: _293  and  _294
REMARK  122  A    between atoms: _297  and  _299
REMARK  123  A    between atoms: _299  and  _300
REMARK  124  A    between atoms: _299  and  _302
REMARK  125  A    between atoms: _302  and  _303
REMARK  126  A    between atoms: _306  and  _308
REMARK  127  A    between atoms: _308  and  _309
REMARK  128  A    between atoms: _308  and  _311
REMARK  129  A    between atoms: _311  and  _312
REMARK  130  A    between atoms: _314  and  _316
REMARK  131  A    between atoms: _316  and  _317
REMARK  132  A    between atoms: _316  and  _319
REMARK  133  A    between atoms: _319  and  _320
REMARK  134  A    between atoms: _320  and  _321
REMARK  135  A    between atoms: _321  and  _322
REMARK  136  A    between atoms: _331  and  _333
REMARK  137  A    between atoms: _333  and  _334
REMARK  138  A    between atoms: _333  and  _336
REMARK  139  A    between atoms: _336  and  _337
REMARK  140  A    between atoms: _337  and  _338
REMARK  141  A    between atoms: _338  and  _339
REMARK  142  A    between atoms: _348  and  _350
REMARK  143  A    between atoms: _350  and  _351
REMARK  144  A    between atoms: _350  and  _353
REMARK  145  A    between atoms: _353  and  _354
REMARK  146  A    between atoms: _357  and  _359
REMARK  147  A    between atoms: _359  and  _360
REMARK  148  A    between atoms: _359  and  _362
REMARK  149  A    between atoms: _362  and  _363
REMARK  150  A    between atoms: _366  and  _368
REMARK  151  A    between atoms: _368  and  _369
REMARK  152  A    between atoms: _368  and  _371
REMARK  153  A    between atoms: _371  and  _372
REMARK  154  A    between atoms: _378  and  _380
REMARK  155  A    between atoms: _380  and  _381
REMARK  156  A    between atoms: _380  and  _383
REMARK  157  A    between atoms: _383  and  _384
REMARK  158  A    between atoms: _387  and  _389
REMARK  159  A    between atoms: _389  and  _390
REMARK  160  A    between atoms: _389  and  _392
REMARK  161  A    between atoms: _392  and  _393
REMARK  162  A    between atoms: _393  and  _394
REMARK  163  A    between atoms: _394  and  _395
REMARK  164  A    between atoms: _395  and  _396
REMARK  165  A    between atoms: _400  and  _402
REMARK  166  A    between atoms: _402  and  _403
REMARK  167  A    between atoms: _402  and  _405
REMARK  168  A    between atoms: _405  and  _406
REMARK  169  A    between atoms: _409  and  _411
REMARK  170  A    between atoms: _411  and  _412
REMARK  171  A    between atoms: _411  and  _414
REMARK  172  A    between atoms: _414  and  _415
REMARK  173  A    between atoms: _421  and  _423
REMARK  174  A    between atoms: _423  and  _424
REMARK  175  A    between atoms: _423  and  _426
REMARK  176  A    between atoms: _426  and  _427
REMARK  177  A    between atoms: _432  and  _433
REMARK  178  A    between atoms: _435  and  _437
REMARK  179  A    between atoms: _437  and  _438
REMARK  180  A    between atoms: _437  and  _440
REMARK  181  A    between atoms: _440  and  _441
REMARK  182  A    between atoms: _447  and  _449
REMARK  183  A    between atoms: _449  and  _450
REMARK  184  A    between atoms: _453  and  _455
REMARK  185  A    between atoms: _455  and  _456
REMARK  186  A    between atoms: _458  and  _460
REMARK  187  A    between atoms: _460  and  _461
REMARK  188  A    between atoms: _460  and  _463
REMARK  189  A    between atoms: _463  and  _464
REMARK  190  A    between atoms: _467  and  _469
REMARK  191  A    between atoms: _469  and  _470
REMARK  192  A    between atoms: _469  and  _472
REMARK  193  A    between atoms: _472  and  _473
REMARK  194  A    between atoms: _473  and  _474
REMARK  195  A    between atoms: _479  and  _481
REMARK  196  A    between atoms: _481  and  _482
REMARK  197  A    between atoms: _481  and  _484
REMARK  198  A    between atoms: _484  and  _485
REMARK  199  A    between atoms: _491  and  _493
REMARK  200  A    between atoms: _493  and  _494
REMARK  201  A    between atoms: _493  and  _496
REMARK  202  A    between atoms: _496  and  _497
REMARK  203  A    between atoms: _500  and  _502
REMARK  204  A    between atoms: _502  and  _503
REMARK  205  A    between atoms: _502  and  _505
REMARK  206  A    between atoms: _505  and  _506
REMARK  207  A    between atoms: _512  and  _514
REMARK  208  A    between atoms: _514  and  _515
REMARK  209  A    between atoms: _514  and  _517
REMARK  210  A    between atoms: _517  and  _518
REMARK  211  A    between atoms: _520  and  _522
REMARK  212  A    between atoms: _522  and  _523
REMARK  213  A    between atoms: _522  and  _525
REMARK  214  A    between atoms: _525  and  _526
REMARK  215  A    between atoms: _529  and  _531
REMARK  216  A    between atoms: _531  and  _532
REMARK  217  A    between atoms: _531  and  _534
REMARK  218  A    between atoms: _534  and  _535
REMARK  219  A    between atoms: _540  and  _542
REMARK  220  A    between atoms: _542  and  _543
REMARK  221  A    between atoms: _542  and  _545
REMARK  222  A    between atoms: _545  and  _546
REMARK  223  A    between atoms: _548  and  _550
REMARK  224  A    between atoms: _550  and  _551
REMARK  225  A    between atoms: _550  and  _553
REMARK  226  A    between atoms: _553  and  _554
REMARK  227  A    between atoms: _554  and  _555
REMARK  228  A    between atoms: _560  and  _562
REMARK  229  A    between atoms: _562  and  _563
REMARK  230  A    between atoms: _562  and  _565
REMARK  231  A    between atoms: _568  and  _570
REMARK  232  A    between atoms: _570  and  _571
REMARK  233  A    between atoms: _570  and  _573
REMARK  234  A    between atoms: _573  and  _574
REMARK  235  A    between atoms: _580  and  _582
REMARK  236  A    between atoms: _582  and  _583
REMARK  237  A    between atoms: _586  and  _588
REMARK  238  A    between atoms: _588  and  _589
REMARK  239  A    between atoms: _588  and  _591
REMARK  240  A    between atoms: _591  and  _592
REMARK  241  A    between atoms: _595  and  _597
REMARK  242  A    between atoms: _597  and  _598
REMARK  243  A    between atoms: _597  and  _600
REMARK  244  A    between atoms: _600  and  _601
REMARK  245  A    between atoms: _601  and  _602
REMARK  246  A    between atoms: _607  and  _609
REMARK  247  A    between atoms: _609  and  _610
REMARK  248  A    between atoms: _609  and  _612
REMARK  249  A    between atoms: _612  and  _613
REMARK  250  A    between atoms: _613  and  _614
REMARK  251  A    between atoms: _614  and  _615
REMARK  252  A    between atoms: _615  and  _616
REMARK  253  A    between atoms: _620  and  _622
REMARK  254  A    between atoms: _622  and  _623
REMARK  255  A    between atoms: _622  and  _625
REMARK  256  A    between atoms: _625  and  _626
REMARK  257  A    between atoms: _626  and  _627
REMARK  258  A    between atoms: _627  and  _628
REMARK  259  A    between atoms: _628  and  _629
REMARK  260  A    between atoms: _633  and  _635
REMARK  261  A    between atoms: _635  and  _636
REMARK  262  A    between atoms: _635  and  _638
REMARK  263  A    between atoms: _638  and  _639
REMARK  264  A    between atoms: _643  and  _644
REMARK  265  A    between atoms: _649  and  _651
REMARK  266  A    between atoms: _651  and  _652
REMARK  267  A    between atoms: _651  and  _654
REMARK  268  A    between atoms: _654  and  _655
REMARK  269  A    between atoms: _658  and  _660
REMARK  270  A    between atoms: _660  and  _661
REMARK  271  A    between atoms: _660  and  _663
REMARK  272  A    between atoms: _663  and  _664
REMARK  273  A    between atoms: _666  and  _668
REMARK  274  A    between atoms: _668  and  _669
REMARK  275  A    between atoms: _668  and  _671
REMARK  276  A    between atoms: _671  and  _672
REMARK                            x       y       z     vdW  Elec       q    Type
REMARK                         _______ _______ _______ _____ _____    ______ ____
ROOT
ATOM      1  C   ILE A   1      25.233 -24.675  12.144  0.00  0.00    +0.238 C 
ATOM      2  O   ILE A   1      24.269 -25.411  12.400  0.00  0.00    -0.274 OA
ATOM      3  N   PHE A   2      25.520 -24.245  10.916  0.00  0.00    -0.298 N 
ATOM      4  H   PHE A   2      26.382 -23.681  10.768  0.00  0.00    +0.150 HD
ENDROOT
BRANCH   1   5
ATOM      5  CA  ILE A   1      26.194 -24.220  13.241  0.00  0.00    +0.145 C 
BRANCH   5   6
ATOM      6  N   ILE A   1      27.560 -24.493  12.803  0.00  0.00    -0.238 NA
ATOM      7  H   ILE A   1      28.219 -23.703  12.653  0.00  0.00    +0.142 HD
ENDBRANCH   5   6
BRANCH   5   8
ATOM      8  CB  ILE A   1      25.951 -22.710  13.527  0.00  0.00    +0.025 C 
ATOM      9  CG2 ILE A   1      24.462 -22.408  13.721  0.00  0.00    +0.002 C 
BRANCH   8  10
ATOM     10  CG1 ILE A   1      26.717 -22.236  14.763  0.00  0.00    +0.002 C 
ATOM     11  CD1 ILE A   1      26.788 -20.686  14.876  0.00  0.00    +0.000 C 
ENDBRANCH   8  10
ENDBRANCH   5   8
ENDBRANCH   1   5
BRANCH   3  12
ATOM     12  CA  PHE A   2      24.663 -24.540   9.770  0.00  0.00    +0.141 C 
BRANCH  12  13
ATOM     13  C   PHE A   2      24.729 -26.017   9.343  0.00  0.00    +0.227 C 
ATOM     14  O   PHE A   2      23.742 -26.574   8.895  0.00  0.00    -0.286 OA
ENDBRANCH  12  13
BRANCH  12  15
ATOM     15  CB  PHE A   2      24.986 -23.589   8.593  0.00  0.00    +0.054 C 
BRANCH  15  16
ATOM     16  CG  PHE A   2      24.325 -22.224   8.706  0.00  0.00    -0.020 A 
ATOM     17  CD2 PHE A   2      24.811 -21.260   9.603  0.00  0.00    -0.004 A 
ATOM     18  CE2 PHE A   2      24.203 -19.985   9.709  0.00  0.00    -0.000 A 
ATOM     19  CZ  PHE A   2      23.110 -19.678   8.925  0.00  0.00    -0.000 A 
ATOM     20  CE1 PHE A   2      22.611 -20.630   8.017  0.00  0.00    -0.000 A 
ATOM     21  CD1 PHE A   2      23.223 -21.893   7.907  0.00  0.00    -0.004 A 
ENDBRANCH  15  16
ENDBRANCH  12  15
ENDBRANCH   3  12
TORSDOF 8
REMARK  Name = ../refined-set-2016/3ipu/3ipu_pocket.pdb
REMARK  276 active torsions:
REMARK  status: ('A' for Active; 'I' for Inactive)
REMARK    1  A    between atoms: _1  and  _3
REMARK    2  A    between atoms: _3  and  _4
REMARK    3  A    between atoms: _3  and  _6
REMARK    4  A    between atoms: _6  and  _7
REMARK    5  A    between atoms: _12  and  _14
REMARK    6  A    between atoms: _14  and  _15
REMARK    7  A    between atoms: _14  and  _17
REMARK    8  A    between atoms: _17  and  _18
REMARK    9  A    between atoms: _18  and  _19
REMARK   10  A    between atoms: _19  and  _20
REMARK   11  A    between atoms: _29  and  _31
REMARK   12  A    between atoms: _31  and  _32
REMARK   13  A    between atoms: _31  and  _34
REMARK   14  A    between atoms: _34  and  _35
REMARK   15  A    between atoms: _37  and  _39
REMARK   16  A    between atoms: _39  and  _40
REMARK   17  A    between atoms: _39  and  _42
REMARK   18  A    between atoms: _42  and  _43
REMARK   19  A    between atoms: _49  and  _51
REMARK   20  A    between atoms: _51  and  _52
REMARK   21  A    between atoms: _51  and  _54
REMARK   22  A    between atoms: _54  and  _55
REMARK   23  A    between atoms: _55  and  _56
REMARK   24  A    between atoms: _56  and  _57
REMARK   25  A    between atoms: _66  and  _68
REMARK   26  A    between atoms: _68  and  _69
REMARK   27  A    between atoms: _68  and  _71
REMARK   28  A    between atoms: _71  and  _72
REMARK   29  A    between atoms: _75  and  _77
REMARK   30  A    between atoms: _77  and  _78
REMARK   31  A    between atoms: _77  and  _80
REMARK   32  A    between atoms: _83  and  _85
REMARK   33  A    between atoms: _85  and  _86
REMARK   34  A    between atoms: _85  and  _88
REMARK   35  A    between atoms: _88  and  _89
REMARK   36  A    between atoms: _89  and  _90
REMARK   37  A    between atoms: _90  and  _91
REMARK   38  A    between atoms: _100  and  _102
REMARK   39  A    between atoms: _102  and  _103
REMARK   40  A    between atoms: _102  and  _105
REMARK   41  A    between atoms: _105  and  _106
REMARK   42  A    between atoms: _112  and  _114
REMARK   43  A    between atoms: _114  and  _115
REMARK   44  A    between atoms: _118  and  _120
REMARK   45  A    between atoms: _120  and  _121
REMARK   46  A    between atoms: _120  and  _123
REMARK   47  A    between atoms: _123  and  _124
REMARK   48  A    between atoms: _129  and  _131
REMARK   49  A    between atoms: _131  and  _132
REMARK   50  A    between atoms: _131  and  _134
REMARK   51  A    between atoms: _134  and  _135
REMARK   52  A    between atoms: _141  and  _143
REMARK   53  A    between atoms: _143  and  _144
REMARK   54  A    between atoms: _143  and  _146
REMARK   55  A    between atoms: _146  and  _147
REMARK   56  A    between atoms: _150  and  _152
REMARK   57  A    between atoms: _152  and  _153
REMARK   58  A    between atoms: _152  and  _155
REMARK   59  A    between atoms: _155  and  _156
REMARK   60  A    between atoms: _156  and  _157
REMARK   61  A    between atoms: _160  and  _162
REMARK   62  A    between atoms: _162  and  _163
REMARK   63  A    between atoms: _162  and  _165
REMARK   64  A    between atoms: _165  and  _166
REMARK   65  A    between atoms: _169  and  _171
REMARK   66  A    between atoms: _171  and  _172
REMARK   67  A    between atoms: _175  and  _177
REMARK   68  A    between atoms: _177  and  _178
REMARK   69  A    between atoms: _177  and  _180
REMARK   70  A    between atoms: _180  and  _181
REMARK   71  A    between atoms: _184  and  _186
REMARK   72  A    between atoms: _186  and  _187
REMARK   73  A    between atoms: _186  and  _189
REMARK   74  A    between atoms: _192  and  _194
REMARK   75  A    between atoms: _194  and  _195
REMARK   76  A    between atoms: _194  and  _197
REMARK   77  A    between atoms: _197  and  _198
REMARK   78  A    between atoms: _200  and  _202
REMARK   79  A    between atoms: _202  and  _203
REMARK   80  A    between atoms: _202  and  _205
REMARK   81  A    between atoms: _208  and  _210
REMARK   82  A    between atoms: _210  and  _211
REMARK   83  A    between atoms: _210  and  _213
REMARK   84  A    between atoms: _213  and  _214
REMARK   85  A    between atoms: _214  and  _215
REMARK   86  A    between atoms: _218  and  _220
REMARK   87  A    between atoms: _220  and  _221
REMARK   88  A    between atoms: _220  and  _223
REMARK   89  A    between atoms: _223  and  _224
REMARK   90  A    between atoms: _227  and  _229
REMARK   91  A    between atoms: _229  and  _230
REMARK   92  A    between atoms: _233  and  _235
REMARK   93  A    between atoms: _235  and  _236
REMARK   94  A    between atoms: _235  and  _238
REMARK   95  A    between atoms: _238  and  _239
REMARK   96  A    between atoms: _242  and  _244
REMARK   97  A    between atoms: _244  and  _245
REMARK   98  A    between atoms: _244  and  _247
REMARK   99  A    between atoms: _247  and  _248
REMARK  100  A    between atoms: _248  and  _249
REMARK  101  A    between atoms: _252  and  _254
REMARK  102  A    between atoms: _254  and  _255
REMARK  103  A    between atoms: _254  and  _257
REMARK  104  A    between atoms: _260  and  _262
REMARK  105  A    between atoms: _262  and  _263
REMARK  106  A    between atoms: _262  and  _265
REMARK  107  A    between atoms: _265  and  _266
REMARK  108  A    between atoms: _266  and  _267
REMARK  109  A    between atoms: _269  and  _271
REMARK  110  A    between atoms: _271  and  _272
REMARK  111  A    between atoms: _271  and  _274
REMARK  112  A    between atoms: _274  and  _275
REMARK  113  A    between atoms: _278  and  _280
REMARK  114  A    between atoms: _280  and  _281
REMARK  115  A    between atoms: _280  and  _283
REMARK  116  A    between atoms: _283  and  _284
REMARK  117  A    between atoms: _287  and  _289
REMARK  118  A    between atoms: _289  and  _290
REMARK  119  A    between atoms: _289  and  _292
REMARK  120  A    between atoms: _292  and  _293
REMARK  121  A    between atoms: _293  and  _294
REMARK  122  A    between atoms: _297  and  _299
REMARK  123  A    between atoms: _299  and  _300
REMARK  124  A    between atoms: _299  and  _302
REMARK  125  A    between atoms: _302  and  _303
REMARK  126  A    between atoms: _306  and  _308
REMARK  127  A    between atoms: _308  and  _309
REMARK  128  A    between atoms: _308  and  _311
REMARK  129  A    between atoms: _311  and  _312
REMARK  130  A    between atoms: _314  and  _316
REMARK  131  A    between atoms: _316  and  _317
REMARK  132  A    between atoms: _316  and  _319
REMARK  133  A    between atoms: _319  and  _320
REMARK  134  A    between atoms: _320  and  _321
REMARK  135  A    between atoms: _321  and  _322
REMARK  136  A    between atoms: _331  and  _333
REMARK  137  A    between atoms: _333  and  _334
REMARK  138  A    between atoms: _333  and  _336
REMARK  139  A    between atoms: _336  and  _337
REMARK  140  A    between atoms: _337  and  _338
REMARK  141  A    between atoms: _338  and  _339
REMARK  142  A    between atoms: _348  and  _350
REMARK  143  A    between atoms: _350  and  _351
REMARK  144  A    between atoms: _350  and  _353
REMARK  145  A    between atoms: _353  and  _354
REMARK  146  A    between atoms: _357  and  _359
REMARK  147  A    between atoms: _359  and  _360
REMARK  148  A    between atoms: _359  and  _362
REMARK  149  A    between atoms: _362  and  _363
REMARK  150  A    between atoms: _366  and  _368
REMARK  151  A    between atoms: _368  and  _369
REMARK  152  A    between atoms: _368  and  _371
REMARK  153  A    between atoms: _371  and  _372
REMARK  154  A    between atoms: _378  and  _380
REMARK  155  A    between atoms: _380  and  _381
REMARK  156  A    between atoms: _380  and  _383
REMARK  157  A    between atoms: _383  and  _384
REMARK  158  A    between atoms: _387  and  _389
REMARK  159  A    between atoms: _389  and  _390
REMARK  160  A    between atoms: _389  and  _392
REMARK  161  A    between atoms: _392  and  _393
REMARK  162  A    between atoms: _393  and  _394
REMARK  163  A    between atoms: _394  and  _395
REMARK  164  A    between atoms: _395  and  _396
REMARK  165  A    between atoms: _400  and  _402
REMARK  166  A    between atoms: _402  and  _403
REMARK  167  A    between atoms: _402  and  _405
REMARK  168  A    between atoms: _405  and  _406
REMARK  169  A    between atoms: _409  and  _411
REMARK  170  A    between atoms: _411  and  _412
REMARK  171  A    between atoms: _411  and  _414
REMARK  172  A    between atoms: _414  and  _415
REMARK  173  A    between atoms: _421  and  _423
REMARK  174  A    between atoms: _423  and  _424
REMARK  175  A    between atoms: _423  and  _426
REMARK  176  A    between atoms: _426  and  _427
REMARK  177  A    between atoms: _432  and  _433
REMARK  178  A    between atoms: _435  and  _437
REMARK  179  A    between atoms: _437  and  _438
REMARK  180  A    between atoms: _437  and  _440
REMARK  181  A    between atoms: _440  and  _441
REMARK  182  A    between atoms: _447  and  _449
REMARK  183  A    between atoms: _449  and  _450
REMARK  184  A    between atoms: _453  and  _455
REMARK  185  A    between atoms: _455  and  _456
REMARK  186  A    between atoms: _458  and  _460
REMARK  187  A    between atoms: _460  and  _461
REMARK  188  A    between atoms: _460  and  _463
REMARK  189  A    between atoms: _463  and  _464
REMARK  190  A    between atoms: _467  and  _469
REMARK  191  A    between atoms: _469  and  _470
REMARK  192  A    between atoms: _469  and  _472
REMARK  193  A    between atoms: _472  and  _473
REMARK  194  A    between atoms: _473  and  _474
REMARK  195  A    between atoms: _479  and  _481
REMARK  196  A    between atoms: _481  and  _482
REMARK  197  A    between atoms: _481  and  _484
REMARK  198  A    between atoms: _484  and  _485
REMARK  199  A    between atoms: _491  and  _493
REMARK  200  A    between atoms: _493  and  _494
REMARK  201  A    between atoms: _493  and  _496
REMARK  202  A    between atoms: _496  and  _497
REMARK  203  A    between atoms: _500  and  _502
REMARK  204  A    between atoms: _502  and  _503
REMARK  205  A    between atoms: _502  and  _505
REMARK  206  A    between atoms: _505  and  _506
REMARK  207  A    between atoms: _512  and  _514
REMARK  208  A    between atoms: _514  and  _515
REMARK  209  A    between atoms: _514  and  _517
REMARK  210  A    between atoms: _517  and  _518
REMARK  211  A    between atoms: _520  and  _522
REMARK  212  A    between atoms: _522  and  _523
REMARK  213  A    between atoms: _522  and  _525
REMARK  214  A    between atoms: _525  and  _526
REMARK  215  A    between atoms: _529  and  _531
REMARK  216  A    between atoms: _531  and  _532
REMARK  217  A    between atoms: _531  and  _534
REMARK  218  A    between atoms: _534  and  _535
REMARK  219  A    between atoms: _540  and  _542
REMARK  220  A    between atoms: _542  and  _543
REMARK  221  A    between atoms: _542  and  _545
REMARK  222  A    between atoms: _545  and  _546
REMARK  223  A    between atoms: _548  and  _550
REMARK  224  A    between atoms: _550  and  _551
REMARK  225  A    between atoms: _550  and  _553
REMARK  226  A    between atoms: _553  and  _554
REMARK  227  A    between atoms: _554  and  _555
REMARK  228  A    between atoms: _560  and  _562
REMARK  229  A    between atoms: _562  and  _563
REMARK  230  A    between atoms: _562  and  _565
REMARK  231  A    between atoms: _568  and  _570
REMARK  232  A    between atoms: _570  and  _571
REMARK  233  A    between atoms: _570  and  _573
REMARK  234  A    between atoms: _573  and  _574
REMARK  235  A    between atoms: _580  and  _582
REMARK  236  A    between atoms: _582  and  _583
REMARK  237  A    between atoms: _586  and  _588
REMARK  238  A    between atoms: _588  and  _589
REMARK  239  A    between atoms: _588  and  _591
REMARK  240  A    between atoms: _591  and  _592
REMARK  241  A    between atoms: _595  and  _597
REMARK  242  A    between atoms: _597  and  _598
REMARK  243  A    between atoms: _597  and  _600
REMARK  244  A    between atoms: _600  and  _601
REMARK  245  A    between atoms: _601  and  _602
REMARK  246  A    between atoms: _607  and  _609
REMARK  247  A    between atoms: _609  and  _610
REMARK  248  A    between atoms: _609  and  _612
REMARK  249  A    between atoms: _612  and  _613
REMARK  250  A    between atoms: _613  and  _614
REMARK  251  A    between atoms: _614  and  _615
REMARK  252  A    between atoms: _615  and  _616
REMARK  253  A    between atoms: _620  and  _622
REMARK  254  A    between atoms: _622  and  _623
REMARK  255  A    between atoms: _622  and  _625
REMARK  256  A    between atoms: _625  and  _626
REMARK  257  A    between atoms: _626  and  _627
REMARK  258  A    between atoms: _627  and  _628
REMARK  259  A    between atoms: _628  and  _629
REMARK  260  A    between atoms: _633  and  _635
REMARK  261  A    between atoms: _635  and  _636
REMARK  262  A    between atoms: _635  and  _638
REMARK  263  A    between atoms: _638  and  _639
REMARK  264  A    between atoms: _643  and  _644
REMARK  265  A    between atoms: _649  and  _651
REMARK  266  A    between atoms: _651  and  _652
REMARK  267  A    between atoms: _651  and  _654
REMARK  268  A    between atoms: _654  and  _655
REMARK  269  A    between atoms: _658  and  _660
REMARK  270  A    between atoms: _660  and  _661
REMARK  271  A    between atoms: _660  and  _663
REMARK  272  A    between atoms: _663  and  _664
REMARK  273  A    between atoms: _666  and  _668
REMARK  274  A    between atoms: _668  and  _669
REMARK  275  A    between atoms: _668  and  _671
REMARK  276  A    between atoms: _671  and  _672
REMARK                            x       y       z     vdW  Elec       q    Type
REMARK                         _______ _______ _______ _____ _____    ______ ____
ROOT
ATOM      1  CA  SER A   1      21.276 -27.352  11.690  0.00  0.00    +0.163 C 
ENDROOT
BRANCH   1   2
ATOM      2  N   SER A   1      22.654 -27.720  11.966  0.00  0.00    -0.237 NA
ATOM      3  H   SER A   1      23.401 -27.013  11.811  0.00  0.00    +0.142 HD
ENDBRANCH   1   2
BRANCH   1   4
ATOM      4  C   SER A   1      20.749 -28.147  10.487  0.00  0.00    +0.227 C 
ATOM      5  O   SER A   1      19.650 -28.692  10.545  0.00  0.00    -0.287 OA
ENDBRANCH   1   4
BRANCH   1   6
ATOM      6  CB  SER A   1      21.163 -25.840  11.459  0.00  0.00    +0.162 C 
BRANCH   6   7
ATOM      7  OG  SER A   1      21.643 -25.099  12.575  0.00  0.00    -0.380 OA
ATOM      8  H   SER A   1      22.595 -25.320  12.732  0.00  0.00    +0.211 HD
ENDBRANCH   6   7
ENDBRANCH   1   6
TORSDOF 4
REMARK  Name = ../refined-set-2016/3ipu/3ipu_pocket.pdb
REMARK  276 active torsions:
REMARK  status: ('A' for Active; 'I' for Inactive)
REMARK    1  A    between atoms: _1  and  _3
REMARK    2  A    between atoms: _3  and  _4
REMARK    3  A    between atoms: _3  and  _6
REMARK    4  A    between atoms: _6  and  _7
REMARK    5  A    between atoms: _12  and  _14
REMARK    6  A    between atoms: _14  and  _15
REMARK    7  A    between atoms: _14  and  _17
REMARK    8  A    between atoms: _17  and  _18
REMARK    9  A    between atoms: _18  and  _19
REMARK   10  A    between atoms: _19  and  _20
REMARK   11  A    between atoms: _29  and  _31
REMARK   12  A    between atoms: _31  and  _32
REMARK   13  A    between atoms: _31  and  _34
REMARK   14  A    between atoms: _34  and  _35
REMARK   15  A    between atoms: _37  and  _39
REMARK   16  A    between atoms: _39  and  _40
REMARK   17  A    between atoms: _39  and  _42
REMARK   18  A    between atoms: _42  and  _43
REMARK   19  A    between atoms: _49  and  _51
REMARK   20  A    between atoms: _51  and  _52
REMARK   21  A    between atoms: _51  and  _54
REMARK   22  A    between atoms: _54  and  _55
REMARK   23  A    between atoms: _55  and  _56
REMARK   24  A    between atoms: _56  and  _57
REMARK   25  A    between atoms: _66  and  _68
REMARK   26  A    between atoms: _68  and  _69
REMARK   27  A    between atoms: _68  and  _71
REMARK   28  A    between atoms: _71  and  _72
REMARK   29  A    between atoms: _75  and  _77
REMARK   30  A    between atoms: _77  and  _78
REMARK   31  A    between atoms: _77  and  _80
REMARK   32  A    between atoms: _83  and  _85
REMARK   33  A    between atoms: _85  and  _86
REMARK   34  A    between atoms: _85  and  _88
REMARK   35  A    between atoms: _88  and  _89
REMARK   36  A    between atoms: _89  and  _90
REMARK   37  A    between atoms: _90  and  _91
REMARK   38  A    between atoms: _100  and  _102
REMARK   39  A    between atoms: _102  and  _103
REMARK   40  A    between atoms: _102  and  _105
REMARK   41  A    between atoms: _105  and  _106
REMARK   42  A    between atoms: _112  and  _114
REMARK   43  A    between atoms: _114  and  _115
REMARK   44  A    between atoms: _118  and  _120
REMARK   45  A    between atoms: _120  and  _121
REMARK   46  A    between atoms: _120  and  _123
REMARK   47  A    between atoms: _123  and  _124
REMARK   48  A    between atoms: _129  and  _131
REMARK   49  A    between atoms: _131  and  _132
REMARK   50  A    between atoms: _131  and  _134
REMARK   51  A    between atoms: _134  and  _135
REMARK   52  A    between atoms: _141  and  _143
REMARK   53  A    between atoms: _143  and  _144
REMARK   54  A    between atoms: _143  and  _146
REMARK   55  A    between atoms: _146  and  _147
REMARK   56  A    between atoms: _150  and  _152
REMARK   57  A    between atoms: _152  and  _153
REMARK   58  A    between atoms: _152  and  _155
REMARK   59  A    between atoms: _155  and  _156
REMARK   60  A    between atoms: _156  and  _157
REMARK   61  A    between atoms: _160  and  _162
REMARK   62  A    between atoms: _162  and  _163
REMARK   63  A    between atoms: _162  and  _165
REMARK   64  A    between atoms: _165  and  _166
REMARK   65  A    between atoms: _169  and  _171
REMARK   66  A    between atoms: _171  and  _172
REMARK   67  A    between atoms: _175  and  _177
REMARK   68  A    between atoms: _177  and  _178
REMARK   69  A    between atoms: _177  and  _180
REMARK   70  A    between atoms: _180  and  _181
REMARK   71  A    between atoms: _184  and  _186
REMARK   72  A    between atoms: _186  and  _187
REMARK   73  A    between atoms: _186  and  _189
REMARK   74  A    between atoms: _192  and  _194
REMARK   75  A    between atoms: _194  and  _195
REMARK   76  A    between atoms: _194  and  _197
REMARK   77  A    between atoms: _197  and  _198
REMARK   78  A    between atoms: _200  and  _202
REMARK   79  A    between atoms: _202  and  _203
REMARK   80  A    between atoms: _202  and  _205
REMARK   81  A    between atoms: _208  and  _210
REMARK   82  A    between atoms: _210  and  _211
REMARK   83  A    between atoms: _210  and  _213
REMARK   84  A    between atoms: _213  and  _214
REMARK   85  A    between atoms: _214  and  _215
REMARK   86  A    between atoms: _218  and  _220
REMARK   87  A    between atoms: _220  and  _221
REMARK   88  A    between atoms: _220  and  _223
REMARK   89  A    between atoms: _223  and  _224
REMARK   90  A    between atoms: _227  and  _229
REMARK   91  A    between atoms: _229  and  _230
REMARK   92  A    between atoms: _233  and  _235
REMARK   93  A    between atoms: _235  and  _236
REMARK   94  A    between atoms: _235  and  _238
REMARK   95  A    between atoms: _238  and  _239
REMARK   96  A    between atoms: _242  and  _244
REMARK   97  A    between atoms: _244  and  _245
REMARK   98  A    between atoms: _244  and  _247
REMARK   99  A    between atoms: _247  and  _248
REMARK  100  A    between atoms: _248  and  _249
REMARK  101  A    between atoms: _252  and  _254
REMARK  102  A    between atoms: _254  and  _255
REMARK  103  A    between atoms: _254  and  _257
REMARK  104  A    between atoms: _260  and  _262
REMARK  105  A    between atoms: _262  and  _263
REMARK  106  A    between atoms: _262  and  _265
REMARK  107  A    between atoms: _265  and  _266
REMARK  108  A    between atoms: _266  and  _267
REMARK  109  A    between atoms: _269  and  _271
REMARK  110  A    between atoms: _271  and  _272
REMARK  111  A    between atoms: _271  and  _274
REMARK  112  A    between atoms: _274  and  _275
REMARK  113  A    between atoms: _278  and  _280
REMARK  114  A    between atoms: _280  and  _281
REMARK  115  A    between atoms: _280  and  _283
REMARK  116  A    between atoms: _283  and  _284
REMARK  117  A    between atoms: _287  and  _289
REMARK  118  A    between atoms: _289  and  _290
REMARK  119  A    between atoms: _289  and  _292
REMARK  120  A    between atoms: _292  and  _293
REMARK  121  A    between atoms: _293  and  _294
REMARK  122  A    between atoms: _297  and  _299
REMARK  123  A    between atoms: _299  and  _300
REMARK  124  A    between atoms: _299  and  _302
REMARK  125  A    between atoms: _302  and  _303
REMARK  126  A    between atoms: _306  and  _308
REMARK  127  A    between atoms: _308  and  _309
REMARK  128  A    between atoms: _308  and  _311
REMARK  129  A    between atoms: _311  and  _312
REMARK  130  A    between atoms: _314  and  _316
REMARK  131  A    between atoms: _316  and  _317
REMARK  132  A    between atoms: _316  and  _319
REMARK  133  A    between atoms: _319  and  _320
REMARK  134  A    between atoms: _320  and  _321
REMARK  135  A    between atoms: _321  and  _322
REMARK  136  A    between atoms: _331  and  _333
REMARK  137  A    between atoms: _333  and  _334
REMARK  138  A    between atoms: _333  and  _336
REMARK  139  A    between atoms: _336  and  _337
REMARK  140  A    between atoms: _337  and  _338
REMARK  141  A    between atoms: _338  and  _339
REMARK  142  A    between atoms: _348  and  _350
REMARK  143  A    between atoms: _350  and  _351
REMARK  144  A    between atoms: _350  and  _353
REMARK  145  A    between atoms: _353  and  _354
REMARK  146  A    between atoms: _357  and  _359
REMARK  147  A    between atoms: _359  and  _360
REMARK  148  A    between atoms: _359  and  _362
REMARK  149  A    between atoms: _362  and  _363
REMARK  150  A    between atoms: _366  and  _368
REMARK  151  A    between atoms: _368  and  _369
REMARK  152  A    between atoms: _368  and  _371
REMARK  153  A    between atoms: _371  and  _372
REMARK  154  A    between atoms: _378  and  _380
REMARK  155  A    between atoms: _380  and  _381
REMARK  156  A    between atoms: _380  and  _383
REMARK  157  A    between atoms: _383  and  _384
REMARK  158  A    between atoms: _387  and  _389
REMARK  159  A    between atoms: _389  and  _390
REMARK  160  A    between atoms: _389  and  _392
REMARK  161  A    between atoms: _392  and  _393
REMARK  162  A    between atoms: _393  and  _394
REMARK  163  A    between atoms: _394  and  _395
REMARK  164  A    between atoms: _395  and  _396
REMARK  165  A    between atoms: _400  and  _402
REMARK  166  A    between atoms: _402  and  _403
REMARK  167  A    between atoms: _402  and  _405
REMARK  168  A    between atoms: _405  and  _406
REMARK  169  A    between atoms: _409  and  _411
REMARK  170  A    between atoms: _411  and  _412
REMARK  171  A    between atoms: _411  and  _414
REMARK  172  A    between atoms: _414  and  _415
REMARK  173  A    between atoms: _421  and  _423
REMARK  174  A    between atoms: _423  and  _424
REMARK  175  A    between atoms: _423  and  _426
REMARK  176  A    between atoms: _426  and  _427
REMARK  177  A    between atoms: _432  and  _433
REMARK  178  A    between atoms: _435  and  _437
REMARK  179  A    between atoms: _437  and  _438
REMARK  180  A    between atoms: _437  and  _440
REMARK  181  A    between atoms: _440  and  _441
REMARK  182  A    between atoms: _447  and  _449
REMARK  183  A    between atoms: _449  and  _450
REMARK  184  A    between atoms: _453  and  _455
REMARK  185  A    between atoms: _455  and  _456
REMARK  186  A    between atoms: _458  and  _460
REMARK  187  A    between atoms: _460  and  _461
REMARK  188  A    between atoms: _460  and  _463
REMARK  189  A    between atoms: _463  and  _464
REMARK  190  A    between atoms: _467  and  _469
REMARK  191  A    between atoms: _469  and  _470
REMARK  192  A    between atoms: _469  and  _472
REMARK  193  A    between atoms: _472  and  _473
REMARK  194  A    between atoms: _473  and  _474
REMARK  195  A    between atoms: _479  and  _481
REMARK  196  A    between atoms: _481  and  _482
REMARK  197  A    between atoms: _481  and  _484
REMARK  198  A    between atoms: _484  and  _485
REMARK  199  A    between atoms: _491  and  _493
REMARK  200  A    between atoms: _493  and  _494
REMARK  201  A    between atoms: _493  and  _496
REMARK  202  A    between atoms: _496  and  _497
REMARK  203  A    between atoms: _500  and  _502
REMARK  204  A    between atoms: _502  and  _503
REMARK  205  A    between atoms: _502  and  _505
REMARK  206  A    between atoms: _505  and  _506
REMARK  207  A    between atoms: _512  and  _514
REMARK  208  A    between atoms: _514  and  _515
REMARK  209  A    between atoms: _514  and  _517
REMARK  210  A    between atoms: _517  and  _518
REMARK  211  A    between atoms: _520  and  _522
REMARK  212  A    between atoms: _522  and  _523
REMARK  213  A    between atoms: _522  and  _525
REMARK  214  A    between atoms: _525  and  _526
REMARK  215  A    between atoms: _529  and  _531
REMARK  216  A    between atoms: _531  and  _532
REMARK  217  A    between atoms: _531  and  _534
REMARK  218  A    between atoms: _534  and  _535
REMARK  219  A    between atoms: _540  and  _542
REMARK  220  A    between atoms: _542  and  _543
REMARK  221  A    between atoms: _542  and  _545
REMARK  222  A    between atoms: _545  and  _546
REMARK  223  A    between atoms: _548  and  _550
REMARK  224  A    between atoms: _550  and  _551
REMARK  225  A    between atoms: _550  and  _553
REMARK  226  A    between atoms: _553  and  _554
REMARK  227  A    between atoms: _554  and  _555
REMARK  228  A    between atoms: _560  and  _562
REMARK  229  A    between atoms: _562  and  _563
REMARK  230  A    between atoms: _562  and  _565
REMARK  231  A    between atoms: _568  and  _570
REMARK  232  A    between atoms: _570  and  _571
REMARK  233  A    between atoms: _570  and  _573
REMARK  234  A    between atoms: _573  and  _574
REMARK  235  A    between atoms: _580  and  _582
REMARK  236  A    between atoms: _582  and  _583
REMARK  237  A    between atoms: _586  and  _588
REMARK  238  A    between atoms: _588  and  _589
REMARK  239  A    between atoms: _588  and  _591
REMARK  240  A    between atoms: _591  and  _592
REMARK  241  A    between atoms: _595  and  _597
REMARK  242  A    between atoms: _597  and  _598
REMARK  243  A    between atoms: _597  and  _600
REMARK  244  A    between atoms: _600  and  _601
REMARK  245  A    between atoms: _601  and  _602
REMARK  246  A    between atoms: _607  and  _609
REMARK  247  A    between atoms: _609  and  _610
REMARK  248  A    between atoms: _609  and  _612
REMARK  249  A    between atoms: _612  and  _613
REMARK  250  A    between atoms: _613  and  _614
REMARK  251  A    between atoms: _614  and  _615
REMARK  252  A    between atoms: _615  and  _616
REMARK  253  A    between atoms: _620  and  _622
REMARK  254  A    between atoms: _622  and  _623
REMARK  255  A    between atoms: _622  and  _625
REMARK  256  A    between atoms: _625  and  _626
REMARK  257  A    between atoms: _626  and  _627
REMARK  258  A    between atoms: _627  and  _628
REMARK  259  A    between atoms: _628  and  _629
REMARK  260  A    between atoms: _633  and  _635
REMARK  261  A    between atoms: _635  and  _636
REMARK  262  A    between atoms: _635  and  _638
REMARK  263  A    between atoms: _638  and  _639
REMARK  264  A    between atoms: _643  and  _644
REMARK  265  A    between atoms: _649  and  _651
REMARK  266  A    between atoms: _651  and  _652
REMARK  267  A    between atoms: _651  and  _654
REMARK  268  A    between atoms: _654  and  _655
REMARK  269  A    between atoms: _658  and  _660
REMARK  270  A    between atoms: _660  and  _661
REMARK  271  A    between atoms: _660  and  _663
REMARK  272  A    between atoms: _663  and  _664
REMARK  273  A    between atoms: _666  and  _668
REMARK  274  A    between atoms: _668  and  _669
REMARK  275  A    between atoms: _668  and  _671
REMARK  276  A    between atoms: _671  and  _672
REMARK                            x       y       z     vdW  Elec       q    Type
REMARK                         _______ _______ _______ _____ _____    ______ ____
ROOT
ATOM      1  CA  LEU A   1      29.592 -27.164  18.964  0.00  0.00    +0.133 C 
ENDROOT
BRANCH   1   2
ATOM      2  N   LEU A   1      29.956 -28.562  19.293  0.00  0.00    -0.239 NA
ATOM      3  H   LEU A   1      29.228 -29.304  19.275  0.00  0.00    +0.142 HD
ENDBRANCH   1   2
BRANCH   1   4
ATOM      4  C   LEU A   1      29.821 -26.217  20.142  0.00  0.00    +0.224 C 
ATOM      5  O   LEU A   1      30.252 -25.084  19.951  0.00  0.00    -0.287 OA
ENDBRANCH   1   4
BRANCH   1   6
ATOM      6  CB  LEU A   1      28.146 -27.024  18.459  0.00  0.00    +0.025 C 
BRANCH   6   7
ATOM      7  CG  LEU A   1      27.971 -26.864  16.945  0.00  0.00    +0.002 C 
ATOM      8  CD2 LEU A   1      26.538 -26.506  16.593  0.00  0.00    +0.000 C 
ATOM      9  CD1 LEU A   1      28.896 -25.803  16.387  0.00  0.00    +0.000 C 
ENDBRANCH   6   7
ENDBRANCH   1   6
TORSDOF 4
REMARK  Name = ../refined-set-2016/3ipu/3ipu_pocket.pdb
REMARK  276 active torsions:
REMARK  status: ('A' for Active; 'I' for Inactive)
REMARK    1  A    between atoms: _1  and  _3
REMARK    2  A    between atoms: _3  and  _4
REMARK    3  A    between atoms: _3  and  _6
REMARK    4  A    between atoms: _6  and  _7
REMARK    5  A    between atoms: _12  and  _14
REMARK    6  A    between atoms: _14  and  _15
REMARK    7  A    between atoms: _14  and  _17
REMARK    8  A    between atoms: _17  and  _18
REMARK    9  A    between atoms: _18  and  _19
REMARK   10  A    between atoms: _19  and  _20
REMARK   11  A    between atoms: _29  and  _31
REMARK   12  A    between atoms: _31  and  _32
REMARK   13  A    between atoms: _31  and  _34
REMARK   14  A    between atoms: _34  and  _35
REMARK   15  A    between atoms: _37  and  _39
REMARK   16  A    between atoms: _39  and  _40
REMARK   17  A    between atoms: _39  and  _42
REMARK   18  A    between atoms: _42  and  _43
REMARK   19  A    between atoms: _49  and  _51
REMARK   20  A    between atoms: _51  and  _52
REMARK   21  A    between atoms: _51  and  _54
REMARK   22  A    between atoms: _54  and  _55
REMARK   23  A    between atoms: _55  and  _56
REMARK   24  A    between atoms: _56  and  _57
REMARK   25  A    between atoms: _66  and  _68
REMARK   26  A    between atoms: _68  and  _69
REMARK   27  A    between atoms: _68  and  _71
REMARK   28  A    between atoms: _71  and  _72
REMARK   29  A    between atoms: _75  and  _77
REMARK   30  A    between atoms: _77  and  _78
REMARK   31  A    between atoms: _77  and  _80
REMARK   32  A    between atoms: _83  and  _85
REMARK   33  A    between atoms: _85  and  _86
REMARK   34  A    between atoms: _85  and  _88
REMARK   35  A    between atoms: _88  and  _89
REMARK   36  A    between atoms: _89  and  _90
REMARK   37  A    between atoms: _90  and  _91
REMARK   38  A    between atoms: _100  and  _102
REMARK   39  A    between atoms: _102  and  _103
REMARK   40  A    between atoms: _102  and  _105
REMARK   41  A    between atoms: _105  and  _106
REMARK   42  A    between atoms: _112  and  _114
REMARK   43  A    between atoms: _114  and  _115
REMARK   44  A    between atoms: _118  and  _120
REMARK   45  A    between atoms: _120  and  _121
REMARK   46  A    between atoms: _120  and  _123
REMARK   47  A    between atoms: _123  and  _124
REMARK   48  A    between atoms: _129  and  _131
REMARK   49  A    between atoms: _131  and  _132
REMARK   50  A    between atoms: _131  and  _134
REMARK   51  A    between atoms: _134  and  _135
REMARK   52  A    between atoms: _141  and  _143
REMARK   53  A    between atoms: _143  and  _144
REMARK   54  A    between atoms: _143  and  _146
REMARK   55  A    between atoms: _146  and  _147
REMARK   56  A    between atoms: _150  and  _152
REMARK   57  A    between atoms: _152  and  _153
REMARK   58  A    between atoms: _152  and  _155
REMARK   59  A    between atoms: _155  and  _156
REMARK   60  A    between atoms: _156  and  _157
REMARK   61  A    between atoms: _160  and  _162
REMARK   62  A    between atoms: _162  and  _163
REMARK   63  A    between atoms: _162  and  _165
REMARK   64  A    between atoms: _165  and  _166
REMARK   65  A    between atoms: _169  and  _171
REMARK   66  A    between atoms: _171  and  _172
REMARK   67  A    between atoms: _175  and  _177
REMARK   68  A    between atoms: _177  and  _178
REMARK   69  A    between atoms: _177  and  _180
REMARK   70  A    between atoms: _180  and  _181
REMARK   71  A    between atoms: _184  and  _186
REMARK   72  A    between atoms: _186  and  _187
REMARK   73  A    between atoms: _186  and  _189
REMARK   74  A    between atoms: _192  and  _194
REMARK   75  A    between atoms: _194  and  _195
REMARK   76  A    between atoms: _194  and  _197
REMARK   77  A    between atoms: _197  and  _198
REMARK   78  A    between atoms: _200  and  _202
REMARK   79  A    between atoms: _202  and  _203
REMARK   80  A    between atoms: _202  and  _205
REMARK   81  A    between atoms: _208  and  _210
REMARK   82  A    between atoms: _210  and  _211
REMARK   83  A    between atoms: _210  and  _213
REMARK   84  A    between atoms: _213  and  _214
REMARK   85  A    between atoms: _214  and  _215
REMARK   86  A    between atoms: _218  and  _220
REMARK   87  A    between atoms: _220  and  _221
REMARK   88  A    between atoms: _220  and  _223
REMARK   89  A    between atoms: _223  and  _224
REMARK   90  A    between atoms: _227  and  _229
REMARK   91  A    between atoms: _229  and  _230
REMARK   92  A    between atoms: _233  and  _235
REMARK   93  A    between atoms: _235  and  _236
REMARK   94  A    between atoms: _235  and  _238
REMARK   95  A    between atoms: _238  and  _239
REMARK   96  A    between atoms: _242  and  _244
REMARK   97  A    between atoms: _244  and  _245
REMARK   98  A    between atoms: _244  and  _247
REMARK   99  A    between atoms: _247  and  _248
REMARK  100  A    between atoms: _248  and  _249
REMARK  101  A    between atoms: _252  and  _254
REMARK  102  A    between atoms: _254  and  _255
REMARK  103  A    between atoms: _254  and  _257
REMARK  104  A    between atoms: _260  and  _262
REMARK  105  A    between atoms: _262  and  _263
REMARK  106  A    between atoms: _262  and  _265
REMARK  107  A    between atoms: _265  and  _266
REMARK  108  A    between atoms: _266  and  _267
REMARK  109  A    between atoms: _269  and  _271
REMARK  110  A    between atoms: _271  and  _272
REMARK  111  A    between atoms: _271  and  _274
REMARK  112  A    between atoms: _274  and  _275
REMARK  113  A    between atoms: _278  and  _280
REMARK  114  A    between atoms: _280  and  _281
REMARK  115  A    between atoms: _280  and  _283
REMARK  116  A    between atoms: _283  and  _284
REMARK  117  A    between atoms: _287  and  _289
REMARK  118  A    between atoms: _289  and  _290
REMARK  119  A    between atoms: _289  and  _292
REMARK  120  A    between atoms: _292  and  _293
REMARK  121  A    between atoms: _293  and  _294
REMARK  122  A    between atoms: _297  and  _299
REMARK  123  A    between atoms: _299  and  _300
REMARK  124  A    between atoms: _299  and  _302
REMARK  125  A    between atoms: _302  and  _303
REMARK  126  A    between atoms: _306  and  _308
REMARK  127  A    between atoms: _308  and  _309
REMARK  128  A    between atoms: _308  and  _311
REMARK  129  A    between atoms: _311  and  _312
REMARK  130  A    between atoms: _314  and  _316
REMARK  131  A    between atoms: _316  and  _317
REMARK  132  A    between atoms: _316  and  _319
REMARK  133  A    between atoms: _319  and  _320
REMARK  134  A    between atoms: _320  and  _321
REMARK  135  A    between atoms: _321  and  _322
REMARK  136  A    between atoms: _331  and  _333
REMARK  137  A    between atoms: _333  and  _334
REMARK  138  A    between atoms: _333  and  _336
REMARK  139  A    between atoms: _336  and  _337
REMARK  140  A    between atoms: _337  and  _338
REMARK  141  A    between atoms: _338  and  _339
REMARK  142  A    between atoms: _348  and  _350
REMARK  143  A    between atoms: _350  and  _351
REMARK  144  A    between atoms: _350  and  _353
REMARK  145  A    between atoms: _353  and  _354
REMARK  146  A    between atoms: _357  and  _359
REMARK  147  A    between atoms: _359  and  _360
REMARK  148  A    between atoms: _359  and  _362
REMARK  149  A    between atoms: _362  and  _363
REMARK  150  A    between atoms: _366  and  _368
REMARK  151  A    between atoms: _368  and  _369
REMARK  152  A    between atoms: _368  and  _371
REMARK  153  A    between atoms: _371  and  _372
REMARK  154  A    between atoms: _378  and  _380
REMARK  155  A    between atoms: _380  and  _381
REMARK  156  A    between atoms: _380  and  _383
REMARK  157  A    between atoms: _383  and  _384
REMARK  158  A    between atoms: _387  and  _389
REMARK  159  A    between atoms: _389  and  _390
REMARK  160  A    between atoms: _389  and  _392
REMARK  161  A    between atoms: _392  and  _393
REMARK  162  A    between atoms: _393  and  _394
REMARK  163  A    between atoms: _394  and  _395
REMARK  164  A    between atoms: _395  and  _396
REMARK  165  A    between atoms: _400  and  _402
REMARK  166  A    between atoms: _402  and  _403
REMARK  167  A    between atoms: _402  and  _405
REMARK  168  A    between atoms: _405  and  _406
REMARK  169  A    between atoms: _409  and  _411
REMARK  170  A    between atoms: _411  and  _412
REMARK  171  A    between atoms: _411  and  _414
REMARK  172  A    between atoms: _414  and  _415
REMARK  173  A    between atoms: _421  and  _423
REMARK  174  A    between atoms: _423  and  _424
REMARK  175  A    between atoms: _423  and  _426
REMARK  176  A    between atoms: _426  and  _427
REMARK  177  A    between atoms: _432  and  _433
REMARK  178  A    between atoms: _435  and  _437
REMARK  179  A    between atoms: _437  and  _438
REMARK  180  A    between atoms: _437  and  _440
REMARK  181  A    between atoms: _440  and  _441
REMARK  182  A    between atoms: _447  and  _449
REMARK  183  A    between atoms: _449  and  _450
REMARK  184  A    between atoms: _453  and  _455
REMARK  185  A    between atoms: _455  and  _456
REMARK  186  A    between atoms: _458  and  _460
REMARK  187  A    between atoms: _460  and  _461
REMARK  188  A    between atoms: _460  and  _463
REMARK  189  A    between atoms: _463  and  _464
REMARK  190  A    between atoms: _467  and  _469
REMARK  191  A    between atoms: _469  and  _470
REMARK  192  A    between atoms: _469  and  _472
REMARK  193  A    between atoms: _472  and  _473
REMARK  194  A    between atoms: _473  and  _474
REMARK  195  A    between atoms: _479  and  _481
REMARK  196  A    between atoms: _481  and  _482
REMARK  197  A    between atoms: _481  and  _484
REMARK  198  A    between atoms: _484  and  _485
REMARK  199  A    between atoms: _491  and  _493
REMARK  200  A    between atoms: _493  and  _494
REMARK  201  A    between atoms: _493  and  _496
REMARK  202  A    between atoms: _496  and  _497
REMARK  203  A    between atoms: _500  and  _502
REMARK  204  A    between atoms: _502  and  _503
REMARK  205  A    between atoms: _502  and  _505
REMARK  206  A    between atoms: _505  and  _506
REMARK  207  A    between atoms: _512  and  _514
REMARK  208  A    between atoms: _514  and  _515
REMARK  209  A    between atoms: _514  and  _517
REMARK  210  A    between atoms: _517  and  _518
REMARK  211  A    between atoms: _520  and  _522
REMARK  212  A    between atoms: _522  and  _523
REMARK  213  A    between atoms: _522  and  _525
REMARK  214  A    between atoms: _525  and  _526
REMARK  215  A    between atoms: _529  and  _531
REMARK  216  A    between atoms: _531  and  _532
REMARK  217  A    between atoms: _531  and  _534
REMARK  218  A    between atoms: _534  and  _535
REMARK  219  A    between atoms: _540  and  _542
REMARK  220  A    between atoms: _542  and  _543
REMARK  221  A    between atoms: _542  and  _545
REMARK  222  A    between atoms: _545  and  _546
REMARK  223  A    between atoms: _548  and  _550
REMARK  224  A    between atoms: _550  and  _551
REMARK  225  A    between atoms: _550  and  _553
REMARK  226  A    between atoms: _553  and  _554
REMARK  227  A    between atoms: _554  and  _555
REMARK  228  A    between atoms: _560  and  _562
REMARK  229  A    between atoms: _562  and  _563
REMARK  230  A    between atoms: _562  and  _565
REMARK  231  A    between atoms: _568  and  _570
REMARK  232  A    between atoms: _570  and  _571
REMARK  233  A    between atoms: _570  and  _573
REMARK  234  A    between atoms: _573  and  _574
REMARK  235  A    between atoms: _580  and  _582
REMARK  236  A    between atoms: _582  and  _583
REMARK  237  A    between atoms: _586  and  _588
REMARK  238  A    between atoms: _588  and  _589
REMARK  239  A    between atoms: _588  and  _591
REMARK  240  A    between atoms: _591  and  _592
REMARK  241  A    between atoms: _595  and  _597
REMARK  242  A    between atoms: _597  and  _598
REMARK  243  A    between atoms: _597  and  _600
REMARK  244  A    between atoms: _600  and  _601
REMARK  245  A    between atoms: _601  and  _602
REMARK  246  A    between atoms: _607  and  _609
REMARK  247  A    between atoms: _609  and  _610
REMARK  248  A    between atoms: _609  and  _612
REMARK  249  A    between atoms: _612  and  _613
REMARK  250  A    between atoms: _613  and  _614
REMARK  251  A    between atoms: _614  and  _615
REMARK  252  A    between atoms: _615  and  _616
REMARK  253  A    between atoms: _620  and  _622
REMARK  254  A    between atoms: _622  and  _623
REMARK  255  A    between atoms: _622  and  _625
REMARK  256  A    between atoms: _625  and  _626
REMARK  257  A    between atoms: _626  and  _627
REMARK  258  A    between atoms: _627  and  _628
REMARK  259  A    between atoms: _628  and  _629
REMARK  260  A    between atoms: _633  and  _635
REMARK  261  A    between atoms: _635  and  _636
REMARK  262  A    between atoms: _635  and  _638
REMARK  263  A    between atoms: _638  and  _639
REMARK  264  A    between atoms: _643  and  _644
REMARK  265  A    between atoms: _649  and  _651
REMARK  266  A    between atoms: _651  and  _652
REMARK  267  A    between atoms: _651  and  _654
REMARK  268  A    between atoms: _654  and  _655
REMARK  269  A    between atoms: _658  and  _660
REMARK  270  A    between atoms: _660  and  _661
REMARK  271  A    between atoms: _660  and  _663
REMARK  272  A    between atoms: _663  and  _664
REMARK  273  A    between atoms: _666  and  _668
REMARK  274  A    between atoms: _668  and  _669
REMARK  275  A    between atoms: _668  and  _671
REMARK  276  A    between atoms: _671  and  _672
REMARK                            x       y       z     vdW  Elec       q    Type
REMARK                         _______ _______ _______ _____ _____    ______ ____
ROOT
ATOM      1  C   HIS A   1      32.572 -21.058  21.657  0.00  0.00    +0.239 C 
ATOM      2  N   SER A   2      33.227 -21.835  22.517  0.00  0.00    -0.296 N 
ATOM      3  H   SER A   2      33.048 -22.859  22.514  0.00  0.00    +0.150 HD
ATOM      4  O   HIS A   1      32.677 -19.842  21.658  0.00  0.00    -0.274 OA
ENDROOT
BRANCH   1   5
ATOM      5  CA  HIS A   1      31.646 -21.735  20.649  0.00  0.00    +0.151 C 
BRANCH   5   6
ATOM      6  N   HIS A   1      32.196 -22.969  20.113  0.00  0.00    -0.238 NA
ATOM      7  H   HIS A   1      31.687 -23.859  20.286  0.00  0.00    +0.142 HD
ENDBRANCH   5   6
BRANCH   5   8
ATOM      8  CB  HIS A   1      30.294 -21.975  21.292  0.00  0.00    +0.074 C 
BRANCH   8   9
ATOM      9  CG  HIS A   1      29.774 -20.784  22.025  0.00  0.00    +0.082 A 
ATOM     10  ND1 HIS A   1      29.873 -20.655  23.393  0.00  0.00    -0.227 NA
ATOM     11  CE1 HIS A   1      29.344 -19.500  23.757  0.00  0.00    +0.199 A 
ATOM     12  NE2 HIS A   1      28.929 -18.866  22.675  0.00  0.00    -0.221 NA
ATOM     13  CD2 HIS A   1      29.186 -19.648  21.578  0.00  0.00    +0.115 A 
ENDBRANCH   8   9
ENDBRANCH   5   8
ENDBRANCH   1   5
BRANCH   2  14
ATOM     14  CA  SER A   2      34.199 -21.279  23.472  0.00  0.00    +0.166 C 
BRANCH  14  15
ATOM     15  CB  SER A   2      35.356 -20.564  22.767  0.00  0.00    +0.229 C 
ATOM     16  OG  SER A   2      35.814 -19.522  23.221  0.00  0.00    -0.286 OA
ENDBRANCH  14  15
BRANCH  14  17
ATOM     17  C   SER A   2      34.787 -22.380  24.366  0.00  0.00    +0.165 C 
BRANCH  17  18
ATOM     18  O   SER A   2      33.834 -23.395  24.576  0.00  0.00    -0.380 OA
ATOM     19  H   SER A   2      33.574 -23.788  23.705  0.00  0.00    +0.211 HD
ENDBRANCH  17  18
ENDBRANCH  14  17
ENDBRANCH   2  14
TORSDOF 8
REMARK  Name = ../refined-set-2016/3ipu/3ipu_pocket.pdb
REMARK  276 active torsions:
REMARK  status: ('A' for Active; 'I' for Inactive)
REMARK    1  A    between atoms: _1  and  _3
REMARK    2  A    between atoms: _3  and  _4
REMARK    3  A    between atoms: _3  and  _6
REMARK    4  A    between atoms: _6  and  _7
REMARK    5  A    between atoms: _12  and  _14
REMARK    6  A    between atoms: _14  and  _15
REMARK    7  A    between atoms: _14  and  _17
REMARK    8  A    between atoms: _17  and  _18
REMARK    9  A    between atoms: _18  and  _19
REMARK   10  A    between atoms: _19  and  _20
REMARK   11  A    between atoms: _29  and  _31
REMARK   12  A    between atoms: _31  and  _32
REMARK   13  A    between atoms: _31  and  _34
REMARK   14  A    between atoms: _34  and  _35
REMARK   15  A    between atoms: _37  and  _39
REMARK   16  A    between atoms: _39  and  _40
REMARK   17  A    between atoms: _39  and  _42
REMARK   18  A    between atoms: _42  and  _43
REMARK   19  A    between atoms: _49  and  _51
REMARK   20  A    between atoms: _51  and  _52
REMARK   21  A    between atoms: _51  and  _54
REMARK   22  A    between atoms: _54  and  _55
REMARK   23  A    between atoms: _55  and  _56
REMARK   24  A    between atoms: _56  and  _57
REMARK   25  A    between atoms: _66  and  _68
REMARK   26  A    between atoms: _68  and  _69
REMARK   27  A    between atoms: _68  and  _71
REMARK   28  A    between atoms: _71  and  _72
REMARK   29  A    between atoms: _75  and  _77
REMARK   30  A    between atoms: _77  and  _78
REMARK   31  A    between atoms: _77  and  _80
REMARK   32  A    between atoms: _83  and  _85
REMARK   33  A    between atoms: _85  and  _86
REMARK   34  A    between atoms: _85  and  _88
REMARK   35  A    between atoms: _88  and  _89
REMARK   36  A    between atoms: _89  and  _90
REMARK   37  A    between atoms: _90  and  _91
REMARK   38  A    between atoms: _100  and  _102
REMARK   39  A    between atoms: _102  and  _103
REMARK   40  A    between atoms: _102  and  _105
REMARK   41  A    between atoms: _105  and  _106
REMARK   42  A    between atoms: _112  and  _114
REMARK   43  A    between atoms: _114  and  _115
REMARK   44  A    between atoms: _118  and  _120
REMARK   45  A    between atoms: _120  and  _121
REMARK   46  A    between atoms: _120  and  _123
REMARK   47  A    between atoms: _123  and  _124
REMARK   48  A    between atoms: _129  and  _131
REMARK   49  A    between atoms: _131  and  _132
REMARK   50  A    between atoms: _131  and  _134
REMARK   51  A    between atoms: _134  and  _135
REMARK   52  A    between atoms: _141  and  _143
REMARK   53  A    between atoms: _143  and  _144
REMARK   54  A    between atoms: _143  and  _146
REMARK   55  A    between atoms: _146  and  _147
REMARK   56  A    between atoms: _150  and  _152
REMARK   57  A    between atoms: _152  and  _153
REMARK   58  A    between atoms: _152  and  _155
REMARK   59  A    between atoms: _155  and  _156
REMARK   60  A    between atoms: _156  and  _157
REMARK   61  A    between atoms: _160  and  _162
REMARK   62  A    between atoms: _162  and  _163
REMARK   63  A    between atoms: _162  and  _165
REMARK   64  A    between atoms: _165  and  _166
REMARK   65  A    between atoms: _169  and  _171
REMARK   66  A    between atoms: _171  and  _172
REMARK   67  A    between atoms: _175  and  _177
REMARK   68  A    between atoms: _177  and  _178
REMARK   69  A    between atoms: _177  and  _180
REMARK   70  A    between atoms: _180  and  _181
REMARK   71  A    between atoms: _184  and  _186
REMARK   72  A    between atoms: _186  and  _187
REMARK   73  A    between atoms: _186  and  _189
REMARK   74  A    between atoms: _192  and  _194
REMARK   75  A    between atoms: _194  and  _195
REMARK   76  A    between atoms: _194  and  _197
REMARK   77  A    between atoms: _197  and  _198
REMARK   78  A    between atoms: _200  and  _202
REMARK   79  A    between atoms: _202  and  _203
REMARK   80  A    between atoms: _202  and  _205
REMARK   81  A    between atoms: _208  and  _210
REMARK   82  A    between atoms: _210  and  _211
REMARK   83  A    between atoms: _210  and  _213
REMARK   84  A    between atoms: _213  and  _214
REMARK   85  A    between atoms: _214  and  _215
REMARK   86  A    between atoms: _218  and  _220
REMARK   87  A    between atoms: _220  and  _221
REMARK   88  A    between atoms: _220  and  _223
REMARK   89  A    between atoms: _223  and  _224
REMARK   90  A    between atoms: _227  and  _229
REMARK   91  A    between atoms: _229  and  _230
REMARK   92  A    between atoms: _233  and  _235
REMARK   93  A    between atoms: _235  and  _236
REMARK   94  A    between atoms: _235  and  _238
REMARK   95  A    between atoms: _238  and  _239
REMARK   96  A    between atoms: _242  and  _244
REMARK   97  A    between atoms: _244  and  _245
REMARK   98  A    between atoms: _244  and  _247
REMARK   99  A    between atoms: _247  and  _248
REMARK  100  A    between atoms: _248  and  _249
REMARK  101  A    between atoms: _252  and  _254
REMARK  102  A    between atoms: _254  and  _255
REMARK  103  A    between atoms: _254  and  _257
REMARK  104  A    between atoms: _260  and  _262
REMARK  105  A    between atoms: _262  and  _263
REMARK  106  A    between atoms: _262  and  _265
REMARK  107  A    between atoms: _265  and  _266
REMARK  108  A    between atoms: _266  and  _267
REMARK  109  A    between atoms: _269  and  _271
REMARK  110  A    between atoms: _271  and  _272
REMARK  111  A    between atoms: _271  and  _274
REMARK  112  A    between atoms: _274  and  _275
REMARK  113  A    between atoms: _278  and  _280
REMARK  114  A    between atoms: _280  and  _281
REMARK  115  A    between atoms: _280  and  _283
REMARK  116  A    between atoms: _283  and  _284
REMARK  117  A    between atoms: _287  and  _289
REMARK  118  A    between atoms: _289  and  _290
REMARK  119  A    between atoms: _289  and  _292
REMARK  120  A    between atoms: _292  and  _293
REMARK  121  A    between atoms: _293  and  _294
REMARK  122  A    between atoms: _297  and  _299
REMARK  123  A    between atoms: _299  and  _300
REMARK  124  A    between atoms: _299  and  _302
REMARK  125  A    between atoms: _302  and  _303
REMARK  126  A    between atoms: _306  and  _308
REMARK  127  A    between atoms: _308  and  _309
REMARK  128  A    between atoms: _308  and  _311
REMARK  129  A    between atoms: _311  and  _312
REMARK  130  A    between atoms: _314  and  _316
REMARK  131  A    between atoms: _316  and  _317
REMARK  132  A    between atoms: _316  and  _319
REMARK  133  A    between atoms: _319  and  _320
REMARK  134  A    between atoms: _320  and  _321
REMARK  135  A    between atoms: _321  and  _322
REMARK  136  A    between atoms: _331  and  _333
REMARK  137  A    between atoms: _333  and  _334
REMARK  138  A    between atoms: _333  and  _336
REMARK  139  A    between atoms: _336  and  _337
REMARK  140  A    between atoms: _337  and  _338
REMARK  141  A    between atoms: _338  and  _339
REMARK  142  A    between atoms: _348  and  _350
REMARK  143  A    between atoms: _350  and  _351
REMARK  144  A    between atoms: _350  and  _353
REMARK  145  A    between atoms: _353  and  _354
REMARK  146  A    between atoms: _357  and  _359
REMARK  147  A    between atoms: _359  and  _360
REMARK  148  A    between atoms: _359  and  _362
REMARK  149  A    between atoms: _362  and  _363
REMARK  150  A    between atoms: _366  and  _368
REMARK  151  A    between atoms: _368  and  _369
REMARK  152  A    between atoms: _368  and  _371
REMARK  153  A    between atoms: _371  and  _372
REMARK  154  A    between atoms: _378  and  _380
REMARK  155  A    between atoms: _380  and  _381
REMARK  156  A    between atoms: _380  and  _383
REMARK  157  A    between atoms: _383  and  _384
REMARK  158  A    between atoms: _387  and  _389
REMARK  159  A    between atoms: _389  and  _390
REMARK  160  A    between atoms: _389  and  _392
REMARK  161  A    between atoms: _392  and  _393
REMARK  162  A    between atoms: _393  and  _394
REMARK  163  A    between atoms: _394  and  _395
REMARK  164  A    between atoms: _395  and  _396
REMARK  165  A    between atoms: _400  and  _402
REMARK  166  A    between atoms: _402  and  _403
REMARK  167  A    between atoms: _402  and  _405
REMARK  168  A    between atoms: _405  and  _406
REMARK  169  A    between atoms: _409  and  _411
REMARK  170  A    between atoms: _411  and  _412
REMARK  171  A    between atoms: _411  and  _414
REMARK  172  A    between atoms: _414  and  _415
REMARK  173  A    between atoms: _421  and  _423
REMARK  174  A    between atoms: _423  and  _424
REMARK  175  A    between atoms: _423  and  _426
REMARK  176  A    between atoms: _426  and  _427
REMARK  177  A    between atoms: _432  and  _433
REMARK  178  A    between atoms: _435  and  _437
REMARK  179  A    between atoms: _437  and  _438
REMARK  180  A    between atoms: _437  and  _440
REMARK  181  A    between atoms: _440  and  _441
REMARK  182  A    between atoms: _447  and  _449
REMARK  183  A    between atoms: _449  and  _450
REMARK  184  A    between atoms: _453  and  _455
REMARK  185  A    between atoms: _455  and  _456
REMARK  186  A    between atoms: _458  and  _460
REMARK  187  A    between atoms: _460  and  _461
REMARK  188  A    between atoms: _460  and  _463
REMARK  189  A    between atoms: _463  and  _464
REMARK  190  A    between atoms: _467  and  _469
REMARK  191  A    between atoms: _469  and  _470
REMARK  192  A    between atoms: _469  and  _472
REMARK  193  A    between atoms: _472  and  _473
REMARK  194  A    between atoms: _473  and  _474
REMARK  195  A    between atoms: _479  and  _481
REMARK  196  A    between atoms: _481  and  _482
REMARK  197  A    between atoms: _481  and  _484
REMARK  198  A    between atoms: _484  and  _485
REMARK  199  A    between atoms: _491  and  _493
REMARK  200  A    between atoms: _493  and  _494
REMARK  201  A    between atoms: _493  and  _496
REMARK  202  A    between atoms: _496  and  _497
REMARK  203  A    between atoms: _500  and  _502
REMARK  204  A    between atoms: _502  and  _503
REMARK  205  A    between atoms: _502  and  _505
REMARK  206  A    between atoms: _505  and  _506
REMARK  207  A    between atoms: _512  and  _514
REMARK  208  A    between atoms: _514  and  _515
REMARK  209  A    between atoms: _514  and  _517
REMARK  210  A    between atoms: _517  and  _518
REMARK  211  A    between atoms: _520  and  _522
REMARK  212  A    between atoms: _522  and  _523
REMARK  213  A    between atoms: _522  and  _525
REMARK  214  A    between atoms: _525  and  _526
REMARK  215  A    between atoms: _529  and  _531
REMARK  216  A    between atoms: _531  and  _532
REMARK  217  A    between atoms: _531  and  _534
REMARK  218  A    between atoms: _534  and  _535
REMARK  219  A    between atoms: _540  and  _542
REMARK  220  A    between atoms: _542  and  _543
REMARK  221  A    between atoms: _542  and  _545
REMARK  222  A    between atoms: _545  and  _546
REMARK  223  A    between atoms: _548  and  _550
REMARK  224  A    between atoms: _550  and  _551
REMARK  225  A    between atoms: _550  and  _553
REMARK  226  A    between atoms: _553  and  _554
REMARK  227  A    between atoms: _554  and  _555
REMARK  228  A    between atoms: _560  and  _562
REMARK  229  A    between atoms: _562  and  _563
REMARK  230  A    between atoms: _562  and  _565
REMARK  231  A    between atoms: _568  and  _570
REMARK  232  A    between atoms: _570  and  _571
REMARK  233  A    between atoms: _570  and  _573
REMARK  234  A    between atoms: _573  and  _574
REMARK  235  A    between atoms: _580  and  _582
REMARK  236  A    between atoms: _582  and  _583
REMARK  237  A    between atoms: _586  and  _588
REMARK  238  A    between atoms: _588  and  _589
REMARK  239  A    between atoms: _588  and  _591
REMARK  240  A    between atoms: _591  and  _592
REMARK  241  A    between atoms: _595  and  _597
REMARK  242  A    between atoms: _597  and  _598
REMARK  243  A    between atoms: _597  and  _600
REMARK  244  A    between atoms: _600  and  _601
REMARK  245  A    between atoms: _601  and  _602
REMARK  246  A    between atoms: _607  and  _609
REMARK  247  A    between atoms: _609  and  _610
REMARK  248  A    between atoms: _609  and  _612
REMARK  249  A    between atoms: _612  and  _613
REMARK  250  A    between atoms: _613  and  _614
REMARK  251  A    between atoms: _614  and  _615
REMARK  252  A    between atoms: _615  and  _616
REMARK  253  A    between atoms: _620  and  _622
REMARK  254  A    between atoms: _622  and  _623
REMARK  255  A    between atoms: _622  and  _625
REMARK  256  A    between atoms: _625  and  _626
REMARK  257  A    between atoms: _626  and  _627
REMARK  258  A    between atoms: _627  and  _628
REMARK  259  A    between atoms: _628  and  _629
REMARK  260  A    between atoms: _633  and  _635
REMARK  261  A    between atoms: _635  and  _636
REMARK  262  A    between atoms: _635  and  _638
REMARK  263  A    between atoms: _638  and  _639
REMARK  264  A    between atoms: _643  and  _644
REMARK  265  A    between atoms: _649  and  _651
REMARK  266  A    between atoms: _651  and  _652
REMARK  267  A    between atoms: _651  and  _654
REMARK  268  A    between atoms: _654  and  _655
REMARK  269  A    between atoms: _658  and  _660
REMARK  270  A    between atoms: _660  and  _661
REMARK  271  A    between atoms: _660  and  _663
REMARK  272  A    between atoms: _663  and  _664
REMARK  273  A    between atoms: _666  and  _668
REMARK  274  A    between atoms: _668  and  _669
REMARK  275  A    between atoms: _668  and  _671
REMARK  276  A    between atoms: _671  and  _672
REMARK                            x       y       z     vdW  Elec       q    Type
REMARK                         _______ _______ _______ _____ _____    ______ ____
ROOT
ATOM      1  CA  PHE A   3      37.899 -16.184  22.955  0.00  0.00    +0.153 C 
ENDROOT
BRANCH   1   2
ATOM      2  C   PHE A   3      38.372 -15.231  21.850  0.00  0.00    +0.241 C 
ATOM      3  O   PHE A   3      39.131 -14.312  22.115  0.00  0.00    -0.273 OA
ATOM      4  N   ALA A   4      37.917 -15.459  20.619  0.00  0.00    -0.297 N 
ATOM      5  H   ALA A   4      37.301 -16.280  20.450  0.00  0.00    +0.150 HD
BRANCH   4   6
ATOM      6  CA  ALA A   4      38.263 -14.583  19.499  0.00  0.00    +0.149 C 
ATOM      7  CB  ALA A   4      37.786 -15.185  18.180  0.00  0.00    +0.031 C 
BRANCH   6   8
ATOM      8  C   ALA A   4      37.695 -13.167  19.692  0.00  0.00    +0.241 C 
ATOM      9  N   LEU A   5      36.515 -13.066  20.296  0.00  0.00    -0.298 N 
ATOM     10  H   LEU A   5      36.025 -13.934  20.593  0.00  0.00    +0.150 HD
ATOM     11  O   ALA A   4      38.323 -12.187  19.298  0.00  0.00    -0.273 OA
BRANCH   9  12
ATOM     12  CA  LEU A   5      35.883 -11.769  20.556  0.00  0.00    +0.137 C 
BRANCH  12  13
ATOM     13  C   LEU A   5      36.771 -10.914  21.423  0.00  0.00    +0.227 C 
ATOM     14  O   LEU A   5      36.949  -9.725  21.163  0.00  0.00    -0.286 OA
ENDBRANCH  12  13
BRANCH  12  15
ATOM     15  CB  LEU A   5      34.531 -11.942  21.244  0.00  0.00    +0.028 C 
BRANCH  15  16
ATOM     16  CG  LEU A   5      33.293 -11.974  20.353  0.00  0.00    +0.002 C 
ATOM     17  CD2 LEU A   5      32.227 -12.863  20.988  0.00  0.00    +0.000 C 
ATOM     18  CD1 LEU A   5      33.634 -12.424  18.969  0.00  0.00    +0.000 C 
ENDBRANCH  15  16
ENDBRANCH  12  15
ENDBRANCH   9  12
ENDBRANCH   6   8
ENDBRANCH   4   6
ENDBRANCH   1   2
BRANCH   1  21
ATOM     19  C   VAL A   2      35.502 -15.690  22.975  0.00  0.00    +0.241 C 
ATOM     20  O   VAL A   2      35.684 -14.520  23.345  0.00  0.00    -0.273 OA
ATOM     21  N   PHE A   3      36.493 -16.564  22.801  0.00  0.00    -0.297 N 
ATOM     22  H   PHE A   3      36.261 -17.546  22.548  0.00  0.00    +0.150 HD
BRANCH  19  23
ATOM     23  CA  VAL A   2      34.092 -16.214  22.695  0.00  0.00    +0.148 C 
BRANCH  23  25
ATOM     24  C   GLN A   1      34.428 -16.862  20.361  0.00  0.00    +0.238 C 
ATOM     25  N   VAL A   2      34.107 -17.183  21.609  0.00  0.00    -0.297 N 
ATOM     26  H   VAL A   2      33.855 -18.170  21.820  0.00  0.00    +0.150 HD
ATOM     27  O   GLN A   1      34.760 -15.727  20.023  0.00  0.00    -0.274 OA
BRANCH  24  28
ATOM     28  CA  GLN A   1      34.376 -18.001  19.334  0.00  0.00    +0.145 C 
BRANCH  28  29
ATOM     29  N   GLN A   1      35.011 -19.209  19.842  0.00  0.00    -0.238 NA
ATOM     30  H   GLN A   1      34.441 -20.072  19.953  0.00  0.00    +0.142 HD
ENDBRANCH  28  29
BRANCH  28  31
ATOM     31  CB  GLN A   1      32.930 -18.295  18.925  0.00  0.00    +0.036 C 
BRANCH  31  32
ATOM     32  CG  GLN A   1      32.096 -17.062  18.580  0.00  0.00    +0.087 C 
BRANCH  32  33
ATOM     33  CD  GLN A   1      32.548 -16.404  17.290  0.00  0.00    +0.219 C 
ATOM     34  NE2 GLN A   1      33.302 -15.324  17.409  0.00  0.00    -0.329 N 
ATOM     35 HE21 GLN A   1      33.571 -14.979  18.353  0.00  0.00    +0.145 HD
ATOM     36 HE22 GLN A   1      33.626 -14.820  16.559  0.00  0.00    +0.145 HD
ATOM     37  OE1 GLN A   1      32.200 -16.857  16.195  0.00  0.00    -0.275 OA
ENDBRANCH  32  33
ENDBRANCH  31  32
ENDBRANCH  28  31
ENDBRANCH  24  28
ENDBRANCH  23  25
BRANCH  23  38
ATOM     38  CB  VAL A   2      33.477 -16.847  23.974  0.00  0.00    +0.027 C 
ATOM     39  CG2 VAL A   2      33.764 -16.006  25.238  0.00  0.00    +0.002 C 
ATOM     40  CG1 VAL A   2      31.986 -17.062  23.774  0.00  0.00    +0.002 C 
ENDBRANCH  23  38
ENDBRANCH  19  23
ENDBRANCH   1  21
BRANCH   1  41
ATOM     41  CB  PHE A   3      38.800 -17.415  22.981  0.00  0.00    +0.055 C 
BRANCH  41  42
ATOM     42  CG  PHE A   3      40.217 -17.104  23.355  0.00  0.00    -0.020 A 
ATOM     43  CD2 PHE A   3      40.535 -16.741  24.666  0.00  0.00    -0.004 A 
ATOM     44  CE2 PHE A   3      41.851 -16.449  25.028  0.00  0.00    -0.000 A 
ATOM     45  CZ  PHE A   3      42.870 -16.511  24.062  0.00  0.00    -0.000 A 
ATOM     46  CE1 PHE A   3      42.557 -16.870  22.754  0.00  0.00    -0.000 A 
ATOM     47  CD1 PHE A   3      41.236 -17.168  22.408  0.00  0.00    -0.004 A 
ENDBRANCH  41  42
ENDBRANCH   1  41
TORSDOF 18
REMARK  Name = ../refined-set-2016/3ipu/3ipu_pocket.pdb
REMARK  276 active torsions:
REMARK  status: ('A' for Active; 'I' for Inactive)
REMARK    1  A    between atoms: _1  and  _3
REMARK    2  A    between atoms: _3  and  _4
REMARK    3  A    between atoms: _3  and  _6
REMARK    4  A    between atoms: _6  and  _7
REMARK    5  A    between atoms: _12  and  _14
REMARK    6  A    between atoms: _14  and  _15
REMARK    7  A    between atoms: _14  and  _17
REMARK    8  A    between atoms: _17  and  _18
REMARK    9  A    between atoms: _18  and  _19
REMARK   10  A    between atoms: _19  and  _20
REMARK   11  A    between atoms: _29  and  _31
REMARK   12  A    between atoms: _31  and  _32
REMARK   13  A    between atoms: _31  and  _34
REMARK   14  A    between atoms: _34  and  _35
REMARK   15  A    between atoms: _37  and  _39
REMARK   16  A    between atoms: _39  and  _40
REMARK   17  A    between atoms: _39  and  _42
REMARK   18  A    between atoms: _42  and  _43
REMARK   19  A    between atoms: _49  and  _51
REMARK   20  A    between atoms: _51  and  _52
REMARK   21  A    between atoms: _51  and  _54
REMARK   22  A    between atoms: _54  and  _55
REMARK   23  A    between atoms: _55  and  _56
REMARK   24  A    between atoms: _56  and  _57
REMARK   25  A    between atoms: _66  and  _68
REMARK   26  A    between atoms: _68  and  _69
REMARK   27  A    between atoms: _68  and  _71
REMARK   28  A    between atoms: _71  and  _72
REMARK   29  A    between atoms: _75  and  _77
REMARK   30  A    between atoms: _77  and  _78
REMARK   31  A    between atoms: _77  and  _80
REMARK   32  A    between atoms: _83  and  _85
REMARK   33  A    between atoms: _85  and  _86
REMARK   34  A    between atoms: _85  and  _88
REMARK   35  A    between atoms: _88  and  _89
REMARK   36  A    between atoms: _89  and  _90
REMARK   37  A    between atoms: _90  and  _91
REMARK   38  A    between atoms: _100  and  _102
REMARK   39  A    between atoms: _102  and  _103
REMARK   40  A    between atoms: _102  and  _105
REMARK   41  A    between atoms: _105  and  _106
REMARK   42  A    between atoms: _112  and  _114
REMARK   43  A    between atoms: _114  and  _115
REMARK   44  A    between atoms: _118  and  _120
REMARK   45  A    between atoms: _120  and  _121
REMARK   46  A    between atoms: _120  and  _123
REMARK   47  A    between atoms: _123  and  _124
REMARK   48  A    between atoms: _129  and  _131
REMARK   49  A    between atoms: _131  and  _132
REMARK   50  A    between atoms: _131  and  _134
REMARK   51  A    between atoms: _134  and  _135
REMARK   52  A    between atoms: _141  and  _143
REMARK   53  A    between atoms: _143  and  _144
REMARK   54  A    between atoms: _143  and  _146
REMARK   55  A    between atoms: _146  and  _147
REMARK   56  A    between atoms: _150  and  _152
REMARK   57  A    between atoms: _152  and  _153
REMARK   58  A    between atoms: _152  and  _155
REMARK   59  A    between atoms: _155  and  _156
REMARK   60  A    between atoms: _156  and  _157
REMARK   61  A    between atoms: _160  and  _162
REMARK   62  A    between atoms: _162  and  _163
REMARK   63  A    between atoms: _162  and  _165
REMARK   64  A    between atoms: _165  and  _166
REMARK   65  A    between atoms: _169  and  _171
REMARK   66  A    between atoms: _171  and  _172
REMARK   67  A    between atoms: _175  and  _177
REMARK   68  A    between atoms: _177  and  _178
REMARK   69  A    between atoms: _177  and  _180
REMARK   70  A    between atoms: _180  and  _181
REMARK   71  A    between atoms: _184  and  _186
REMARK   72  A    between atoms: _186  and  _187
REMARK   73  A    between atoms: _186  and  _189
REMARK   74  A    between atoms: _192  and  _194
REMARK   75  A    between atoms: _194  and  _195
REMARK   76  A    between atoms: _194  and  _197
REMARK   77  A    between atoms: _197  and  _198
REMARK   78  A    between atoms: _200  and  _202
REMARK   79  A    between atoms: _202  and  _203
REMARK   80  A    between atoms: _202  and  _205
REMARK   81  A    between atoms: _208  and  _210
REMARK   82  A    between atoms: _210  and  _211
REMARK   83  A    between atoms: _210  and  _213
REMARK   84  A    between atoms: _213  and  _214
REMARK   85  A    between atoms: _214  and  _215
REMARK   86  A    between atoms: _218  and  _220
REMARK   87  A    between atoms: _220  and  _221
REMARK   88  A    between atoms: _220  and  _223
REMARK   89  A    between atoms: _223  and  _224
REMARK   90  A    between atoms: _227  and  _229
REMARK   91  A    between atoms: _229  and  _230
REMARK   92  A    between atoms: _233  and  _235
REMARK   93  A    between atoms: _235  and  _236
REMARK   94  A    between atoms: _235  and  _238
REMARK   95  A    between atoms: _238  and  _239
REMARK   96  A    between atoms: _242  and  _244
REMARK   97  A    between atoms: _244  and  _245
REMARK   98  A    between atoms: _244  and  _247
REMARK   99  A    between atoms: _247  and  _248
REMARK  100  A    between atoms: _248  and  _249
REMARK  101  A    between atoms: _252  and  _254
REMARK  102  A    between atoms: _254  and  _255
REMARK  103  A    between atoms: _254  and  _257
REMARK  104  A    between atoms: _260  and  _262
REMARK  105  A    between atoms: _262  and  _263
REMARK  106  A    between atoms: _262  and  _265
REMARK  107  A    between atoms: _265  and  _266
REMARK  108  A    between atoms: _266  and  _267
REMARK  109  A    between atoms: _269  and  _271
REMARK  110  A    between atoms: _271  and  _272
REMARK  111  A    between atoms: _271  and  _274
REMARK  112  A    between atoms: _274  and  _275
REMARK  113  A    between atoms: _278  and  _280
REMARK  114  A    between atoms: _280  and  _281
REMARK  115  A    between atoms: _280  and  _283
REMARK  116  A    between atoms: _283  and  _284
REMARK  117  A    between atoms: _287  and  _289
REMARK  118  A    between atoms: _289  and  _290
REMARK  119  A    between atoms: _289  and  _292
REMARK  120  A    between atoms: _292  and  _293
REMARK  121  A    between atoms: _293  and  _294
REMARK  122  A    between atoms: _297  and  _299
REMARK  123  A    between atoms: _299  and  _300
REMARK  124  A    between atoms: _299  and  _302
REMARK  125  A    between atoms: _302  and  _303
REMARK  126  A    between atoms: _306  and  _308
REMARK  127  A    between atoms: _308  and  _309
REMARK  128  A    between atoms: _308  and  _311
REMARK  129  A    between atoms: _311  and  _312
REMARK  130  A    between atoms: _314  and  _316
REMARK  131  A    between atoms: _316  and  _317
REMARK  132  A    between atoms: _316  and  _319
REMARK  133  A    between atoms: _319  and  _320
REMARK  134  A    between atoms: _320  and  _321
REMARK  135  A    between atoms: _321  and  _322
REMARK  136  A    between atoms: _331  and  _333
REMARK  137  A    between atoms: _333  and  _334
REMARK  138  A    between atoms: _333  and  _336
REMARK  139  A    between atoms: _336  and  _337
REMARK  140  A    between atoms: _337  and  _338
REMARK  141  A    between atoms: _338  and  _339
REMARK  142  A    between atoms: _348  and  _350
REMARK  143  A    between atoms: _350  and  _351
REMARK  144  A    between atoms: _350  and  _353
REMARK  145  A    between atoms: _353  and  _354
REMARK  146  A    between atoms: _357  and  _359
REMARK  147  A    between atoms: _359  and  _360
REMARK  148  A    between atoms: _359  and  _362
REMARK  149  A    between atoms: _362  and  _363
REMARK  150  A    between atoms: _366  and  _368
REMARK  151  A    between atoms: _368  and  _369
REMARK  152  A    between atoms: _368  and  _371
REMARK  153  A    between atoms: _371  and  _372
REMARK  154  A    between atoms: _378  and  _380
REMARK  155  A    between atoms: _380  and  _381
REMARK  156  A    between atoms: _380  and  _383
REMARK  157  A    between atoms: _383  and  _384
REMARK  158  A    between atoms: _387  and  _389
REMARK  159  A    between atoms: _389  and  _390
REMARK  160  A    between atoms: _389  and  _392
REMARK  161  A    between atoms: _392  and  _393
REMARK  162  A    between atoms: _393  and  _394
REMARK  163  A    between atoms: _394  and  _395
REMARK  164  A    between atoms: _395  and  _396
REMARK  165  A    between atoms: _400  and  _402
REMARK  166  A    between atoms: _402  and  _403
REMARK  167  A    between atoms: _402  and  _405
REMARK  168  A    between atoms: _405  and  _406
REMARK  169  A    between atoms: _409  and  _411
REMARK  170  A    between atoms: _411  and  _412
REMARK  171  A    between atoms: _411  and  _414
REMARK  172  A    between atoms: _414  and  _415
REMARK  173  A    between atoms: _421  and  _423
REMARK  174  A    between atoms: _423  and  _424
REMARK  175  A    between atoms: _423  and  _426
REMARK  176  A    between atoms: _426  and  _427
REMARK  177  A    between atoms: _432  and  _433
REMARK  178  A    between atoms: _435  and  _437
REMARK  179  A    between atoms: _437  and  _438
REMARK  180  A    between atoms: _437  and  _440
REMARK  181  A    between atoms: _440  and  _441
REMARK  182  A    between atoms: _447  and  _449
REMARK  183  A    between atoms: _449  and  _450
REMARK  184  A    between atoms: _453  and  _455
REMARK  185  A    between atoms: _455  and  _456
REMARK  186  A    between atoms: _458  and  _460
REMARK  187  A    between atoms: _460  and  _461
REMARK  188  A    between atoms: _460  and  _463
REMARK  189  A    between atoms: _463  and  _464
REMARK  190  A    between atoms: _467  and  _469
REMARK  191  A    between atoms: _469  and  _470
REMARK  192  A    between atoms: _469  and  _472
REMARK  193  A    between atoms: _472  and  _473
REMARK  194  A    between atoms: _473  and  _474
REMARK  195  A    between atoms: _479  and  _481
REMARK  196  A    between atoms: _481  and  _482
REMARK  197  A    between atoms: _481  and  _484
REMARK  198  A    between atoms: _484  and  _485
REMARK  199  A    between atoms: _491  and  _493
REMARK  200  A    between atoms: _493  and  _494
REMARK  201  A    between atoms: _493  and  _496
REMARK  202  A    between atoms: _496  and  _497
REMARK  203  A    between atoms: _500  and  _502
REMARK  204  A    between atoms: _502  and  _503
REMARK  205  A    between atoms: _502  and  _505
REMARK  206  A    between atoms: _505  and  _506
REMARK  207  A    between atoms: _512  and  _514
REMARK  208  A    between atoms: _514  and  _515
REMARK  209  A    between atoms: _514  and  _517
REMARK  210  A    between atoms: _517  and  _518
REMARK  211  A    between atoms: _520  and  _522
REMARK  212  A    between atoms: _522  and  _523
REMARK  213  A    between atoms: _522  and  _525
REMARK  214  A    between atoms: _525  and  _526
REMARK  215  A    between atoms: _529  and  _531
REMARK  216  A    between atoms: _531  and  _532
REMARK  217  A    between atoms: _531  and  _534
REMARK  218  A    between atoms: _534  and  _535
REMARK  219  A    between atoms: _540  and  _542
REMARK  220  A    between atoms: _542  and  _543
REMARK  221  A    between atoms: _542  and  _545
REMARK  222  A    between atoms: _545  and  _546
REMARK  223  A    between atoms: _548  and  _550
REMARK  224  A    between atoms: _550  and  _551
REMARK  225  A    between atoms: _550  and  _553
REMARK  226  A    between atoms: _553  and  _554
REMARK  227  A    between atoms: _554  and  _555
REMARK  228  A    between atoms: _560  and  _562
REMARK  229  A    between atoms: _562  and  _563
REMARK  230  A    between atoms: _562  and  _565
REMARK  231  A    between atoms: _568  and  _570
REMARK  232  A    between atoms: _570  and  _571
REMARK  233  A    between atoms: _570  and  _573
REMARK  234  A    between atoms: _573  and  _574
REMARK  235  A    between atoms: _580  and  _582
REMARK  236  A    between atoms: _582  and  _583
REMARK  237  A    between atoms: _586  and  _588
REMARK  238  A    between atoms: _588  and  _589
REMARK  239  A    between atoms: _588  and  _591
REMARK  240  A    between atoms: _591  and  _592
REMARK  241  A    between atoms: _595  and  _597
REMARK  242  A    between atoms: _597  and  _598
REMARK  243  A    between atoms: _597  and  _600
REMARK  244  A    between atoms: _600  and  _601
REMARK  245  A    between atoms: _601  and  _602
REMARK  246  A    between atoms: _607  and  _609
REMARK  247  A    between atoms: _609  and  _610
REMARK  248  A    between atoms: _609  and  _612
REMARK  249  A    between atoms: _612  and  _613
REMARK  250  A    between atoms: _613  and  _614
REMARK  251  A    between atoms: _614  and  _615
REMARK  252  A    between atoms: _615  and  _616
REMARK  253  A    between atoms: _620  and  _622
REMARK  254  A    between atoms: _622  and  _623
REMARK  255  A    between atoms: _622  and  _625
REMARK  256  A    between atoms: _625  and  _626
REMARK  257  A    between atoms: _626  and  _627
REMARK  258  A    between atoms: _627  and  _628
REMARK  259  A    between atoms: _628  and  _629
REMARK  260  A    between atoms: _633  and  _635
REMARK  261  A    between atoms: _635  and  _636
REMARK  262  A    between atoms: _635  and  _638
REMARK  263  A    between atoms: _638  and  _639
REMARK  264  A    between atoms: _643  and  _644
REMARK  265  A    between atoms: _649  and  _651
REMARK  266  A    between atoms: _651  and  _652
REMARK  267  A    between atoms: _651  and  _654
REMARK  268  A    between atoms: _654  and  _655
REMARK  269  A    between atoms: _658  and  _660
REMARK  270  A    between atoms: _660  and  _661
REMARK  271  A    between atoms: _660  and  _663
REMARK  272  A    between atoms: _663  and  _664
REMARK  273  A    between atoms: _666  and  _668
REMARK  274  A    between atoms: _668  and  _669
REMARK  275  A    between atoms: _668  and  _671
REMARK  276  A    between atoms: _671  and  _672
REMARK                            x       y       z     vdW  Elec       q    Type
REMARK                         _______ _______ _______ _____ _____    ______ ____
ROOT
ATOM      1  CB  GLN A   1      37.481  -8.987  17.775  0.00  0.00    +0.035 C 
ENDROOT
BRANCH   1   2
ATOM      2  CA  GLN A   1      38.755  -8.470  18.468  0.00  0.00    +0.134 C 
BRANCH   2   3
ATOM      3  N   GLN A   1      39.370  -9.520  19.286  0.00  0.00    -0.239 NA
ATOM      4  H   GLN A   1      38.792 -10.337  19.569  0.00  0.00    +0.142 HD
ENDBRANCH   2   3
BRANCH   2   5
ATOM      5  C   GLN A   1      38.371  -7.259  19.326  0.00  0.00    +0.224 C 
ATOM      6  O   GLN A   1      37.781  -6.294  18.808  0.00  0.00    -0.287 OA
ENDBRANCH   2   5
ENDBRANCH   1   2
BRANCH   1   7
ATOM      7  CG  GLN A   1      37.683 -10.046  16.672  0.00  0.00    +0.087 C 
BRANCH   7   8
ATOM      8  CD  GLN A   1      36.359 -10.701  16.230  0.00  0.00    +0.219 C 
ATOM      9  NE2 GLN A   1      35.274  -9.909  16.194  0.00  0.00    -0.329 N 
ATOM     10 HE21 GLN A   1      35.357  -8.902  16.438  0.00  0.00    +0.145 HD
ATOM     11 HE22 GLN A   1      34.351 -10.304  15.922  0.00  0.00    +0.145 HD
ATOM     12  OE1 GLN A   1      36.311 -11.906  15.948  0.00  0.00    -0.275 OA
ENDBRANCH   7   8
ENDBRANCH   1   7
TORSDOF 5
REMARK  Name = ../refined-set-2016/3ipu/3ipu_pocket.pdb
REMARK  276 active torsions:
REMARK  status: ('A' for Active; 'I' for Inactive)
REMARK    1  A    between atoms: _1  and  _3
REMARK    2  A    between atoms: _3  and  _4
REMARK    3  A    between atoms: _3  and  _6
REMARK    4  A    between atoms: _6  and  _7
REMARK    5  A    between atoms: _12  and  _14
REMARK    6  A    between atoms: _14  and  _15
REMARK    7  A    between atoms: _14  and  _17
REMARK    8  A    between atoms: _17  and  _18
REMARK    9  A    between atoms: _18  and  _19
REMARK   10  A    between atoms: _19  and  _20
REMARK   11  A    between atoms: _29  and  _31
REMARK   12  A    between atoms: _31  and  _32
REMARK   13  A    between atoms: _31  and  _34
REMARK   14  A    between atoms: _34  and  _35
REMARK   15  A    between atoms: _37  and  _39
REMARK   16  A    between atoms: _39  and  _40
REMARK   17  A    between atoms: _39  and  _42
REMARK   18  A    between atoms: _42  and  _43
REMARK   19  A    between atoms: _49  and  _51
REMARK   20  A    between atoms: _51  and  _52
REMARK   21  A    between atoms: _51  and  _54
REMARK   22  A    between atoms: _54  and  _55
REMARK   23  A    between atoms: _55  and  _56
REMARK   24  A    between atoms: _56  and  _57
REMARK   25  A    between atoms: _66  and  _68
REMARK   26  A    between atoms: _68  and  _69
REMARK   27  A    between atoms: _68  and  _71
REMARK   28  A    between atoms: _71  and  _72
REMARK   29  A    between atoms: _75  and  _77
REMARK   30  A    between atoms: _77  and  _78
REMARK   31  A    between atoms: _77  and  _80
REMARK   32  A    between atoms: _83  and  _85
REMARK   33  A    between atoms: _85  and  _86
REMARK   34  A    between atoms: _85  and  _88
REMARK   35  A    between atoms: _88  and  _89
REMARK   36  A    between atoms: _89  and  _90
REMARK   37  A    between atoms: _90  and  _91
REMARK   38  A    between atoms: _100  and  _102
REMARK   39  A    between atoms: _102  and  _103
REMARK   40  A    between atoms: _102  and  _105
REMARK   41  A    between atoms: _105  and  _106
REMARK   42  A    between atoms: _112  and  _114
REMARK   43  A    between atoms: _114  and  _115
REMARK   44  A    between atoms: _118  and  _120
REMARK   45  A    between atoms: _120  and  _121
REMARK   46  A    between atoms: _120  and  _123
REMARK   47  A    between atoms: _123  and  _124
REMARK   48  A    between atoms: _129  and  _131
REMARK   49  A    between atoms: _131  and  _132
REMARK   50  A    between atoms: _131  and  _134
REMARK   51  A    between atoms: _134  and  _135
REMARK   52  A    between atoms: _141  and  _143
REMARK   53  A    between atoms: _143  and  _144
REMARK   54  A    between atoms: _143  and  _146
REMARK   55  A    between atoms: _146  and  _147
REMARK   56  A    between atoms: _150  and  _152
REMARK   57  A    between atoms: _152  and  _153
REMARK   58  A    between atoms: _152  and  _155
REMARK   59  A    between atoms: _155  and  _156
REMARK   60  A    between atoms: _156  and  _157
REMARK   61  A    between atoms: _160  and  _162
REMARK   62  A    between atoms: _162  and  _163
REMARK   63  A    between atoms: _162  and  _165
REMARK   64  A    between atoms: _165  and  _166
REMARK   65  A    between atoms: _169  and  _171
REMARK   66  A    between atoms: _171  and  _172
REMARK   67  A    between atoms: _175  and  _177
REMARK   68  A    between atoms: _177  and  _178
REMARK   69  A    between atoms: _177  and  _180
REMARK   70  A    between atoms: _180  and  _181
REMARK   71  A    between atoms: _184  and  _186
REMARK   72  A    between atoms: _186  and  _187
REMARK   73  A    between atoms: _186  and  _189
REMARK   74  A    between atoms: _192  and  _194
REMARK   75  A    between atoms: _194  and  _195
REMARK   76  A    between atoms: _194  and  _197
REMARK   77  A    between atoms: _197  and  _198
REMARK   78  A    between atoms: _200  and  _202
REMARK   79  A    between atoms: _202  and  _203
REMARK   80  A    between atoms: _202  and  _205
REMARK   81  A    between atoms: _208  and  _210
REMARK   82  A    between atoms: _210  and  _211
REMARK   83  A    between atoms: _210  and  _213
REMARK   84  A    between atoms: _213  and  _214
REMARK   85  A    between atoms: _214  and  _215
REMARK   86  A    between atoms: _218  and  _220
REMARK   87  A    between atoms: _220  and  _221
REMARK   88  A    between atoms: _220  and  _223
REMARK   89  A    between atoms: _223  and  _224
REMARK   90  A    between atoms: _227  and  _229
REMARK   91  A    between atoms: _229  and  _230
REMARK   92  A    between atoms: _233  and  _235
REMARK   93  A    between atoms: _235  and  _236
REMARK   94  A    between atoms: _235  and  _238
REMARK   95  A    between atoms: _238  and  _239
REMARK   96  A    between atoms: _242  and  _244
REMARK   97  A    between atoms: _244  and  _245
REMARK   98  A    between atoms: _244  and  _247
REMARK   99  A    between atoms: _247  and  _248
REMARK  100  A    between atoms: _248  and  _249
REMARK  101  A    between atoms: _252  and  _254
REMARK  102  A    between atoms: _254  and  _255
REMARK  103  A    between atoms: _254  and  _257
REMARK  104  A    between atoms: _260  and  _262
REMARK  105  A    between atoms: _262  and  _263
REMARK  106  A    between atoms: _262  and  _265
REMARK  107  A    between atoms: _265  and  _266
REMARK  108  A    between atoms: _266  and  _267
REMARK  109  A    between atoms: _269  and  _271
REMARK  110  A    between atoms: _271  and  _272
REMARK  111  A    between atoms: _271  and  _274
REMARK  112  A    between atoms: _274  and  _275
REMARK  113  A    between atoms: _278  and  _280
REMARK  114  A    between atoms: _280  and  _281
REMARK  115  A    between atoms: _280  and  _283
REMARK  116  A    between atoms: _283  and  _284
REMARK  117  A    between atoms: _287  and  _289
REMARK  118  A    between atoms: _289  and  _290
REMARK  119  A    between atoms: _289  and  _292
REMARK  120  A    between atoms: _292  and  _293
REMARK  121  A    between atoms: _293  and  _294
REMARK  122  A    between atoms: _297  and  _299
REMARK  123  A    between atoms: _299  and  _300
REMARK  124  A    between atoms: _299  and  _302
REMARK  125  A    between atoms: _302  and  _303
REMARK  126  A    between atoms: _306  and  _308
REMARK  127  A    between atoms: _308  and  _309
REMARK  128  A    between atoms: _308  and  _311
REMARK  129  A    between atoms: _311  and  _312
REMARK  130  A    between atoms: _314  and  _316
REMARK  131  A    between atoms: _316  and  _317
REMARK  132  A    between atoms: _316  and  _319
REMARK  133  A    between atoms: _319  and  _320
REMARK  134  A    between atoms: _320  and  _321
REMARK  135  A    between atoms: _321  and  _322
REMARK  136  A    between atoms: _331  and  _333
REMARK  137  A    between atoms: _333  and  _334
REMARK  138  A    between atoms: _333  and  _336
REMARK  139  A    between atoms: _336  and  _337
REMARK  140  A    between atoms: _337  and  _338
REMARK  141  A    between atoms: _338  and  _339
REMARK  142  A    between atoms: _348  and  _350
REMARK  143  A    between atoms: _350  and  _351
REMARK  144  A    between atoms: _350  and  _353
REMARK  145  A    between atoms: _353  and  _354
REMARK  146  A    between atoms: _357  and  _359
REMARK  147  A    between atoms: _359  and  _360
REMARK  148  A    between atoms: _359  and  _362
REMARK  149  A    between atoms: _362  and  _363
REMARK  150  A    between atoms: _366  and  _368
REMARK  151  A    between atoms: _368  and  _369
REMARK  152  A    between atoms: _368  and  _371
REMARK  153  A    between atoms: _371  and  _372
REMARK  154  A    between atoms: _378  and  _380
REMARK  155  A    between atoms: _380  and  _381
REMARK  156  A    between atoms: _380  and  _383
REMARK  157  A    between atoms: _383  and  _384
REMARK  158  A    between atoms: _387  and  _389
REMARK  159  A    between atoms: _389  and  _390
REMARK  160  A    between atoms: _389  and  _392
REMARK  161  A    between atoms: _392  and  _393
REMARK  162  A    between atoms: _393  and  _394
REMARK  163  A    between atoms: _394  and  _395
REMARK  164  A    between atoms: _395  and  _396
REMARK  165  A    between atoms: _400  and  _402
REMARK  166  A    between atoms: _402  and  _403
REMARK  167  A    between atoms: _402  and  _405
REMARK  168  A    between atoms: _405  and  _406
REMARK  169  A    between atoms: _409  and  _411
REMARK  170  A    between atoms: _411  and  _412
REMARK  171  A    between atoms: _411  and  _414
REMARK  172  A    between atoms: _414  and  _415
REMARK  173  A    between atoms: _421  and  _423
REMARK  174  A    between atoms: _423  and  _424
REMARK  175  A    between atoms: _423  and  _426
REMARK  176  A    between atoms: _426  and  _427
REMARK  177  A    between atoms: _432  and  _433
REMARK  178  A    between atoms: _435  and  _437
REMARK  179  A    between atoms: _437  and  _438
REMARK  180  A    between atoms: _437  and  _440
REMARK  181  A    between atoms: _440  and  _441
REMARK  182  A    between atoms: _447  and  _449
REMARK  183  A    between atoms: _449  and  _450
REMARK  184  A    between atoms: _453  and  _455
REMARK  185  A    between atoms: _455  and  _456
REMARK  186  A    between atoms: _458  and  _460
REMARK  187  A    between atoms: _460  and  _461
REMARK  188  A    between atoms: _460  and  _463
REMARK  189  A    between atoms: _463  and  _464
REMARK  190  A    between atoms: _467  and  _469
REMARK  191  A    between atoms: _469  and  _470
REMARK  192  A    between atoms: _469  and  _472
REMARK  193  A    between atoms: _472  and  _473
REMARK  194  A    between atoms: _473  and  _474
REMARK  195  A    between atoms: _479  and  _481
REMARK  196  A    between atoms: _481  and  _482
REMARK  197  A    between atoms: _481  and  _484
REMARK  198  A    between atoms: _484  and  _485
REMARK  199  A    between atoms: _491  and  _493
REMARK  200  A    between atoms: _493  and  _494
REMARK  201  A    between atoms: _493  and  _496
REMARK  202  A    between atoms: _496  and  _497
REMARK  203  A    between atoms: _500  and  _502
REMARK  204  A    between atoms: _502  and  _503
REMARK  205  A    between atoms: _502  and  _505
REMARK  206  A    between atoms: _505  and  _506
REMARK  207  A    between atoms: _512  and  _514
REMARK  208  A    between atoms: _514  and  _515
REMARK  209  A    between atoms: _514  and  _517
REMARK  210  A    between atoms: _517  and  _518
REMARK  211  A    between atoms: _520  and  _522
REMARK  212  A    between atoms: _522  and  _523
REMARK  213  A    between atoms: _522  and  _525
REMARK  214  A    between atoms: _525  and  _526
REMARK  215  A    between atoms: _529  and  _531
REMARK  216  A    between atoms: _531  and  _532
REMARK  217  A    between atoms: _531  and  _534
REMARK  218  A    between atoms: _534  and  _535
REMARK  219  A    between atoms: _540  and  _542
REMARK  220  A    between atoms: _542  and  _543
REMARK  221  A    between atoms: _542  and  _545
REMARK  222  A    between atoms: _545  and  _546
REMARK  223  A    between atoms: _548  and  _550
REMARK  224  A    between atoms: _550  and  _551
REMARK  225  A    between atoms: _550  and  _553
REMARK  226  A    between atoms: _553  and  _554
REMARK  227  A    between atoms: _554  and  _555
REMARK  228  A    between atoms: _560  and  _562
REMARK  229  A    between atoms: _562  and  _563
REMARK  230  A    between atoms: _562  and  _565
REMARK  231  A    between atoms: _568  and  _570
REMARK  232  A    between atoms: _570  and  _571
REMARK  233  A    between atoms: _570  and  _573
REMARK  234  A    between atoms: _573  and  _574
REMARK  235  A    between atoms: _580  and  _582
REMARK  236  A    between atoms: _582  and  _583
REMARK  237  A    between atoms: _586  and  _588
REMARK  238  A    between atoms: _588  and  _589
REMARK  239  A    between atoms: _588  and  _591
REMARK  240  A    between atoms: _591  and  _592
REMARK  241  A    between atoms: _595  and  _597
REMARK  242  A    between atoms: _597  and  _598
REMARK  243  A    between atoms: _597  and  _600
REMARK  244  A    between atoms: _600  and  _601
REMARK  245  A    between atoms: _601  and  _602
REMARK  246  A    between atoms: _607  and  _609
REMARK  247  A    between atoms: _609  and  _610
REMARK  248  A    between atoms: _609  and  _612
REMARK  249  A    between atoms: _612  and  _613
REMARK  250  A    between atoms: _613  and  _614
REMARK  251  A    between atoms: _614  and  _615
REMARK  252  A    between atoms: _615  and  _616
REMARK  253  A    between atoms: _620  and  _622
REMARK  254  A    between atoms: _622  and  _623
REMARK  255  A    between atoms: _622  and  _625
REMARK  256  A    between atoms: _625  and  _626
REMARK  257  A    between atoms: _626  and  _627
REMARK  258  A    between atoms: _627  and  _628
REMARK  259  A    between atoms: _628  and  _629
REMARK  260  A    between atoms: _633  and  _635
REMARK  261  A    between atoms: _635  and  _636
REMARK  262  A    between atoms: _635  and  _638
REMARK  263  A    between atoms: _638  and  _639
REMARK  264  A    between atoms: _643  and  _644
REMARK  265  A    between atoms: _649  and  _651
REMARK  266  A    between atoms: _651  and  _652
REMARK  267  A    between atoms: _651  and  _654
REMARK  268  A    between atoms: _654  and  _655
REMARK  269  A    between atoms: _658  and  _660
REMARK  270  A    between atoms: _660  and  _661
REMARK  271  A    between atoms: _660  and  _663
REMARK  272  A    between atoms: _663  and  _664
REMARK  273  A    between atoms: _666  and  _668
REMARK  274  A    between atoms: _668  and  _669
REMARK  275  A    between atoms: _668  and  _671
REMARK  276  A    between atoms: _671  and  _672
REMARK                            x       y       z     vdW  Elec       q    Type
REMARK                         _______ _______ _______ _____ _____    ______ ____
ROOT
ATOM      1  CA  LYS A   2      32.767  -7.069  24.277  0.00  0.00    +0.149 C 
ENDROOT
BRANCH   1   3
ATOM      2  C   LYS A   1      33.901  -7.601  22.191  0.00  0.00    +0.238 C 
ATOM      3  N   LYS A   2      33.223  -6.740  22.939  0.00  0.00    -0.297 N 
ATOM      4  H   LYS A   2      33.011  -5.798  22.554  0.00  0.00    +0.150 HD
ATOM      5  O   LYS A   1      34.102  -8.777  22.522  0.00  0.00    -0.274 OA
BRANCH   2   6
ATOM      6  CA  LYS A   1      34.467  -7.043  20.893  0.00  0.00    +0.145 C 
BRANCH   6   7
ATOM      7  N   LYS A   1      35.905  -7.126  21.045  0.00  0.00    -0.238 NA
ATOM      8  H   LYS A   1      36.378  -8.027  20.828  0.00  0.00    +0.142 HD
ENDBRANCH   6   7
BRANCH   6   9
ATOM      9  CB  LYS A   1      34.004  -7.839  19.673  0.00  0.00    +0.026 C 
BRANCH   9  10
ATOM     10  CG  LYS A   1      32.571  -7.571  19.254  0.00  0.00    -0.000 C 
BRANCH  10  11
ATOM     11  CD  LYS A   1      32.387  -6.210  18.573  0.00  0.00    -0.024 C 
BRANCH  11  12
ATOM     12  CE  LYS A   1      32.345  -6.300  17.033  0.00  0.00    -0.086 C 
BRANCH  12  13
ATOM     13  NZ  LYS A   1      31.906  -4.997  16.398  0.00  0.00    +0.380 N 
ATOM     14  HZ1 LYS A   1      30.953  -4.752  16.735  0.00  0.00    -0.089 HD
ATOM     15  HZ2 LYS A   1      32.572  -4.243  16.661  0.00  0.00    -0.089 HD
ATOM     16  HZ3 LYS A   1      31.892  -5.104  15.364  0.00  0.00    -0.089 HD
ENDBRANCH  12  13
ENDBRANCH  11  12
ENDBRANCH  10  11
ENDBRANCH   9  10
ENDBRANCH   6   9
ENDBRANCH   2   6
ENDBRANCH   1   3
BRANCH   1  17
ATOM     17  C   LYS A   2      31.339  -7.577  24.253  0.00  0.00    +0.241 C 
ATOM     18  N   LEU A   3      31.101  -8.637  25.022  0.00  0.00    -0.297 N 
ATOM     19  H   LEU A   3      31.882  -9.057  25.566  0.00  0.00    +0.150 HD
ATOM     20  O   LYS A   2      30.484  -7.043  23.547  0.00  0.00    -0.273 OA
BRANCH  18  21
ATOM     21  CA  LEU A   3      29.773  -9.220  25.117  0.00  0.00    +0.149 C 
BRANCH  21  22
ATOM     22  C   LEU A   3      28.949  -8.396  26.094  0.00  0.00    +0.244 C 
ATOM     23  O   LEU A   3      29.484  -7.848  27.067  0.00  0.00    -0.273 OA
ATOM     24  N   PRO A   4      27.639  -8.305  25.844  0.00  0.00    -0.273 N 
ATOM     25  CA  PRO A   4      26.818  -7.640  26.831  0.00  0.00    +0.140 C 
ATOM     26  CB  PRO A   4      25.443  -7.598  26.164  0.00  0.00    +0.030 C 
ATOM     27  CG  PRO A   4      25.459  -8.744  25.198  0.00  0.00    +0.024 C 
ATOM     28  CD  PRO A   4      26.856  -8.798  24.697  0.00  0.00    +0.094 C 
BRANCH  25  29
ATOM     29  C   PRO A   4      26.788  -8.453  28.137  0.00  0.00    +0.227 C 
ATOM     30  O   PRO A   4      26.933  -9.679  28.100  0.00  0.00    -0.286 OA
ENDBRANCH  25  29
ENDBRANCH  21  22
BRANCH  21  31
ATOM     31  CB  LEU A   3      29.834 -10.678  25.583  0.00  0.00    +0.029 C 
BRANCH  31  32
ATOM     32  CG  LEU A   3      30.233 -11.744  24.560  0.00  0.00    +0.002 C 
ATOM     33  CD2 LEU A   3      30.493 -13.047  25.278  0.00  0.00    +0.000 C 
ATOM     34  CD1 LEU A   3      29.160 -11.921  23.487  0.00  0.00    +0.000 C 
ENDBRANCH  31  32
ENDBRANCH  21  31
ENDBRANCH  18  21
ENDBRANCH   1  17
BRANCH   1  35
ATOM     35  CB  LYS A   2      32.901  -5.858  25.212  0.00  0.00    +0.029 C 
BRANCH  35  36
ATOM     36  CG  LYS A   2      34.347  -5.570  25.585  0.00  0.00    +0.000 C 
BRANCH  36  37
ATOM     37  CD  LYS A   2      34.475  -4.849  26.927  0.00  0.00    -0.024 C 
BRANCH  37  38
ATOM     38  CE  LYS A   2      35.912  -4.366  27.159  0.00  0.00    -0.086 C 
BRANCH  38  39
ATOM     39  NZ  LYS A   2      36.006  -3.439  28.333  0.00  0.00    +0.380 N 
ATOM     40  HZ1 LYS A   2      35.685  -3.933  29.190  0.00  0.00    -0.089 HD
ATOM     41  HZ2 LYS A   2      36.993  -3.136  28.455  0.00  0.00    -0.089 HD
ATOM     42  HZ3 LYS A   2      35.405  -2.607  28.165  0.00  0.00    -0.089 HD
ENDBRANCH  38  39
ENDBRANCH  37  38
ENDBRANCH  36  37
ENDBRANCH  35  36
ENDBRANCH   1  35
TORSDOF 19
REMARK  Name = ../refined-set-2016/3ipu/3ipu_pocket.pdb
REMARK  276 active torsions:
REMARK  status: ('A' for Active; 'I' for Inactive)
REMARK    1  A    between atoms: _1  and  _3
REMARK    2  A    between atoms: _3  and  _4
REMARK    3  A    between atoms: _3  and  _6
REMARK    4  A    between atoms: _6  and  _7
REMARK    5  A    between atoms: _12  and  _14
REMARK    6  A    between atoms: _14  and  _15
REMARK    7  A    between atoms: _14  and  _17
REMARK    8  A    between atoms: _17  and  _18
REMARK    9  A    between atoms: _18  and  _19
REMARK   10  A    between atoms: _19  and  _20
REMARK   11  A    between atoms: _29  and  _31
REMARK   12  A    between atoms: _31  and  _32
REMARK   13  A    between atoms: _31  and  _34
REMARK   14  A    between atoms: _34  and  _35
REMARK   15  A    between atoms: _37  and  _39
REMARK   16  A    between atoms: _39  and  _40
REMARK   17  A    between atoms: _39  and  _42
REMARK   18  A    between atoms: _42  and  _43
REMARK   19  A    between atoms: _49  and  _51
REMARK   20  A    between atoms: _51  and  _52
REMARK   21  A    between atoms: _51  and  _54
REMARK   22  A    between atoms: _54  and  _55
REMARK   23  A    between atoms: _55  and  _56
REMARK   24  A    between atoms: _56  and  _57
REMARK   25  A    between atoms: _66  and  _68
REMARK   26  A    between atoms: _68  and  _69
REMARK   27  A    between atoms: _68  and  _71
REMARK   28  A    between atoms: _71  and  _72
REMARK   29  A    between atoms: _75  and  _77
REMARK   30  A    between atoms: _77  and  _78
REMARK   31  A    between atoms: _77  and  _80
REMARK   32  A    between atoms: _83  and  _85
REMARK   33  A    between atoms: _85  and  _86
REMARK   34  A    between atoms: _85  and  _88
REMARK   35  A    between atoms: _88  and  _89
REMARK   36  A    between atoms: _89  and  _90
REMARK   37  A    between atoms: _90  and  _91
REMARK   38  A    between atoms: _100  and  _102
REMARK   39  A    between atoms: _102  and  _103
REMARK   40  A    between atoms: _102  and  _105
REMARK   41  A    between atoms: _105  and  _106
REMARK   42  A    between atoms: _112  and  _114
REMARK   43  A    between atoms: _114  and  _115
REMARK   44  A    between atoms: _118  and  _120
REMARK   45  A    between atoms: _120  and  _121
REMARK   46  A    between atoms: _120  and  _123
REMARK   47  A    between atoms: _123  and  _124
REMARK   48  A    between atoms: _129  and  _131
REMARK   49  A    between atoms: _131  and  _132
REMARK   50  A    between atoms: _131  and  _134
REMARK   51  A    between atoms: _134  and  _135
REMARK   52  A    between atoms: _141  and  _143
REMARK   53  A    between atoms: _143  and  _144
REMARK   54  A    between atoms: _143  and  _146
REMARK   55  A    between atoms: _146  and  _147
REMARK   56  A    between atoms: _150  and  _152
REMARK   57  A    between atoms: _152  and  _153
REMARK   58  A    between atoms: _152  and  _155
REMARK   59  A    between atoms: _155  and  _156
REMARK   60  A    between atoms: _156  and  _157
REMARK   61  A    between atoms: _160  and  _162
REMARK   62  A    between atoms: _162  and  _163
REMARK   63  A    between atoms: _162  and  _165
REMARK   64  A    between atoms: _165  and  _166
REMARK   65  A    between atoms: _169  and  _171
REMARK   66  A    between atoms: _171  and  _172
REMARK   67  A    between atoms: _175  and  _177
REMARK   68  A    between atoms: _177  and  _178
REMARK   69  A    between atoms: _177  and  _180
REMARK   70  A    between atoms: _180  and  _181
REMARK   71  A    between atoms: _184  and  _186
REMARK   72  A    between atoms: _186  and  _187
REMARK   73  A    between atoms: _186  and  _189
REMARK   74  A    between atoms: _192  and  _194
REMARK   75  A    between atoms: _194  and  _195
REMARK   76  A    between atoms: _194  and  _197
REMARK   77  A    between atoms: _197  and  _198
REMARK   78  A    between atoms: _200  and  _202
REMARK   79  A    between atoms: _202  and  _203
REMARK   80  A    between atoms: _202  and  _205
REMARK   81  A    between atoms: _208  and  _210
REMARK   82  A    between atoms: _210  and  _211
REMARK   83  A    between atoms: _210  and  _213
REMARK   84  A    between atoms: _213  and  _214
REMARK   85  A    between atoms: _214  and  _215
REMARK   86  A    between atoms: _218  and  _220
REMARK   87  A    between atoms: _220  and  _221
REMARK   88  A    between atoms: _220  and  _223
REMARK   89  A    between atoms: _223  and  _224
REMARK   90  A    between atoms: _227  and  _229
REMARK   91  A    between atoms: _229  and  _230
REMARK   92  A    between atoms: _233  and  _235
REMARK   93  A    between atoms: _235  and  _236
REMARK   94  A    between atoms: _235  and  _238
REMARK   95  A    between atoms: _238  and  _239
REMARK   96  A    between atoms: _242  and  _244
REMARK   97  A    between atoms: _244  and  _245
REMARK   98  A    between atoms: _244  and  _247
REMARK   99  A    between atoms: _247  and  _248
REMARK  100  A    between atoms: _248  and  _249
REMARK  101  A    between atoms: _252  and  _254
REMARK  102  A    between atoms: _254  and  _255
REMARK  103  A    between atoms: _254  and  _257
REMARK  104  A    between atoms: _260  and  _262
REMARK  105  A    between atoms: _262  and  _263
REMARK  106  A    between atoms: _262  and  _265
REMARK  107  A    between atoms: _265  and  _266
REMARK  108  A    between atoms: _266  and  _267
REMARK  109  A    between atoms: _269  and  _271
REMARK  110  A    between atoms: _271  and  _272
REMARK  111  A    between atoms: _271  and  _274
REMARK  112  A    between atoms: _274  and  _275
REMARK  113  A    between atoms: _278  and  _280
REMARK  114  A    between atoms: _280  and  _281
REMARK  115  A    between atoms: _280  and  _283
REMARK  116  A    between atoms: _283  and  _284
REMARK  117  A    between atoms: _287  and  _289
REMARK  118  A    between atoms: _289  and  _290
REMARK  119  A    between atoms: _289  and  _292
REMARK  120  A    between atoms: _292  and  _293
REMARK  121  A    between atoms: _293  and  _294
REMARK  122  A    between atoms: _297  and  _299
REMARK  123  A    between atoms: _299  and  _300
REMARK  124  A    between atoms: _299  and  _302
REMARK  125  A    between atoms: _302  and  _303
REMARK  126  A    between atoms: _306  and  _308
REMARK  127  A    between atoms: _308  and  _309
REMARK  128  A    between atoms: _308  and  _311
REMARK  129  A    between atoms: _311  and  _312
REMARK  130  A    between atoms: _314  and  _316
REMARK  131  A    between atoms: _316  and  _317
REMARK  132  A    between atoms: _316  and  _319
REMARK  133  A    between atoms: _319  and  _320
REMARK  134  A    between atoms: _320  and  _321
REMARK  135  A    between atoms: _321  and  _322
REMARK  136  A    between atoms: _331  and  _333
REMARK  137  A    between atoms: _333  and  _334
REMARK  138  A    between atoms: _333  and  _336
REMARK  139  A    between atoms: _336  and  _337
REMARK  140  A    between atoms: _337  and  _338
REMARK  141  A    between atoms: _338  and  _339
REMARK  142  A    between atoms: _348  and  _350
REMARK  143  A    between atoms: _350  and  _351
REMARK  144  A    between atoms: _350  and  _353
REMARK  145  A    between atoms: _353  and  _354
REMARK  146  A    between atoms: _357  and  _359
REMARK  147  A    between atoms: _359  and  _360
REMARK  148  A    between atoms: _359  and  _362
REMARK  149  A    between atoms: _362  and  _363
REMARK  150  A    between atoms: _366  and  _368
REMARK  151  A    between atoms: _368  and  _369
REMARK  152  A    between atoms: _368  and  _371
REMARK  153  A    between atoms: _371  and  _372
REMARK  154  A    between atoms: _378  and  _380
REMARK  155  A    between atoms: _380  and  _381
REMARK  156  A    between atoms: _380  and  _383
REMARK  157  A    between atoms: _383  and  _384
REMARK  158  A    between atoms: _387  and  _389
REMARK  159  A    between atoms: _389  and  _390
REMARK  160  A    between atoms: _389  and  _392
REMARK  161  A    between atoms: _392  and  _393
REMARK  162  A    between atoms: _393  and  _394
REMARK  163  A    between atoms: _394  and  _395
REMARK  164  A    between atoms: _395  and  _396
REMARK  165  A    between atoms: _400  and  _402
REMARK  166  A    between atoms: _402  and  _403
REMARK  167  A    between atoms: _402  and  _405
REMARK  168  A    between atoms: _405  and  _406
REMARK  169  A    between atoms: _409  and  _411
REMARK  170  A    between atoms: _411  and  _412
REMARK  171  A    between atoms: _411  and  _414
REMARK  172  A    between atoms: _414  and  _415
REMARK  173  A    between atoms: _421  and  _423
REMARK  174  A    between atoms: _423  and  _424
REMARK  175  A    between atoms: _423  and  _426
REMARK  176  A    between atoms: _426  and  _427
REMARK  177  A    between atoms: _432  and  _433
REMARK  178  A    between atoms: _435  and  _437
REMARK  179  A    between atoms: _437  and  _438
REMARK  180  A    between atoms: _437  and  _440
REMARK  181  A    between atoms: _440  and  _441
REMARK  182  A    between atoms: _447  and  _449
REMARK  183  A    between atoms: _449  and  _450
REMARK  184  A    between atoms: _453  and  _455
REMARK  185  A    between atoms: _455  and  _456
REMARK  186  A    between atoms: _458  and  _460
REMARK  187  A    between atoms: _460  and  _461
REMARK  188  A    between atoms: _460  and  _463
REMARK  189  A    between atoms: _463  and  _464
REMARK  190  A    between atoms: _467  and  _469
REMARK  191  A    between atoms: _469  and  _470
REMARK  192  A    between atoms: _469  and  _472
REMARK  193  A    between atoms: _472  and  _473
REMARK  194  A    between atoms: _473  and  _474
REMARK  195  A    between atoms: _479  and  _481
REMARK  196  A    between atoms: _481  and  _482
REMARK  197  A    between atoms: _481  and  _484
REMARK  198  A    between atoms: _484  and  _485
REMARK  199  A    between atoms: _491  and  _493
REMARK  200  A    between atoms: _493  and  _494
REMARK  201  A    between atoms: _493  and  _496
REMARK  202  A    between atoms: _496  and  _497
REMARK  203  A    between atoms: _500  and  _502
REMARK  204  A    between atoms: _502  and  _503
REMARK  205  A    between atoms: _502  and  _505
REMARK  206  A    between atoms: _505  and  _506
REMARK  207  A    between atoms: _512  and  _514
REMARK  208  A    between atoms: _514  and  _515
REMARK  209  A    between atoms: _514  and  _517
REMARK  210  A    between atoms: _517  and  _518
REMARK  211  A    between atoms: _520  and  _522
REMARK  212  A    between atoms: _522  and  _523
REMARK  213  A    between atoms: _522  and  _525
REMARK  214  A    between atoms: _525  and  _526
REMARK  215  A    between atoms: _529  and  _531
REMARK  216  A    between atoms: _531  and  _532
REMARK  217  A    between atoms: _531  and  _534
REMARK  218  A    between atoms: _534  and  _535
REMARK  219  A    between atoms: _540  and  _542
REMARK  220  A    between atoms: _542  and  _543
REMARK  221  A    between atoms: _542  and  _545
REMARK  222  A    between atoms: _545  and  _546
REMARK  223  A    between atoms: _548  and  _550
REMARK  224  A    between atoms: _550  and  _551
REMARK  225  A    between atoms: _550  and  _553
REMARK  226  A    between atoms: _553  and  _554
REMARK  227  A    between atoms: _554  and  _555
REMARK  228  A    between atoms: _560  and  _562
REMARK  229  A    between atoms: _562  and  _563
REMARK  230  A    between atoms: _562  and  _565
REMARK  231  A    between atoms: _568  and  _570
REMARK  232  A    between atoms: _570  and  _571
REMARK  233  A    between atoms: _570  and  _573
REMARK  234  A    between atoms: _573  and  _574
REMARK  235  A    between atoms: _580  and  _582
REMARK  236  A    between atoms: _582  and  _583
REMARK  237  A    between atoms: _586  and  _588
REMARK  238  A    between atoms: _588  and  _589
REMARK  239  A    between atoms: _588  and  _591
REMARK  240  A    between atoms: _591  and  _592
REMARK  241  A    between atoms: _595  and  _597
REMARK  242  A    between atoms: _597  and  _598
REMARK  243  A    between atoms: _597  and  _600
REMARK  244  A    between atoms: _600  and  _601
REMARK  245  A    between atoms: _601  and  _602
REMARK  246  A    between atoms: _607  and  _609
REMARK  247  A    between atoms: _609  and  _610
REMARK  248  A    between atoms: _609  and  _612
REMARK  249  A    between atoms: _612  and  _613
REMARK  250  A    between atoms: _613  and  _614
REMARK  251  A    between atoms: _614  and  _615
REMARK  252  A    between atoms: _615  and  _616
REMARK  253  A    between atoms: _620  and  _622
REMARK  254  A    between atoms: _622  and  _623
REMARK  255  A    between atoms: _622  and  _625
REMARK  256  A    between atoms: _625  and  _626
REMARK  257  A    between atoms: _626  and  _627
REMARK  258  A    between atoms: _627  and  _628
REMARK  259  A    between atoms: _628  and  _629
REMARK  260  A    between atoms: _633  and  _635
REMARK  261  A    between atoms: _635  and  _636
REMARK  262  A    between atoms: _635  and  _638
REMARK  263  A    between atoms: _638  and  _639
REMARK  264  A    between atoms: _643  and  _644
REMARK  265  A    between atoms: _649  and  _651
REMARK  266  A    between atoms: _651  and  _652
REMARK  267  A    between atoms: _651  and  _654
REMARK  268  A    between atoms: _654  and  _655
REMARK  269  A    between atoms: _658  and  _660
REMARK  270  A    between atoms: _660  and  _661
REMARK  271  A    between atoms: _660  and  _663
REMARK  272  A    between atoms: _663  and  _664
REMARK  273  A    between atoms: _666  and  _668
REMARK  274  A    between atoms: _668  and  _669
REMARK  275  A    between atoms: _668  and  _671
REMARK  276  A    between atoms: _671  and  _672
REMARK                            x       y       z     vdW  Elec       q    Type
REMARK                         _______ _______ _______ _____ _____    ______ ____
ROOT
ATOM      1  C   LEU A   1      27.771 -13.194  28.406  0.00  0.00    +0.238 C 
ATOM      2  N   SER A   2      28.324 -12.058  28.815  0.00  0.00    -0.296 N 
ATOM      3  H   SER A   2      27.801 -11.164  28.727  0.00  0.00    +0.150 HD
ATOM      4  O   LEU A   1      28.368 -14.261  28.479  0.00  0.00    -0.274 OA
ENDROOT
BRANCH   1   5
ATOM      5  CA  LEU A   1      26.340 -13.139  27.856  0.00  0.00    +0.145 C 
BRANCH   5   6
ATOM      6  N   LEU A   1      25.525 -12.219  28.649  0.00  0.00    -0.238 NA
ATOM      7  H   LEU A   1      25.145 -11.358  28.206  0.00  0.00    +0.142 HD
ENDBRANCH   5   6
BRANCH   5   8
ATOM      8  CB  LEU A   1      26.343 -12.760  26.371  0.00  0.00    +0.026 C 
BRANCH   8   9
ATOM      9  CG  LEU A   1      25.006 -12.574  25.637  0.00  0.00    +0.002 C 
ATOM     10  CD2 LEU A   1      24.049 -13.757  25.847  0.00  0.00    +0.000 C 
ATOM     11  CD1 LEU A   1      25.260 -12.328  24.156  0.00  0.00    +0.000 C 
ENDBRANCH   8   9
ENDBRANCH   5   8
ENDBRANCH   1   5
BRANCH   2  12
ATOM     12  CA  SER A   2      29.674 -12.064  29.392  0.00  0.00    +0.166 C 
BRANCH  12  13
ATOM     13  C   SER A   2      29.741 -12.883  30.693  0.00  0.00    +0.229 C 
ATOM     14  O   SER A   2      30.678 -13.627  30.936  0.00  0.00    -0.286 OA
ENDBRANCH  12  13
BRANCH  12  15
ATOM     15  CB  SER A   2      30.140 -10.636  29.663  0.00  0.00    +0.165 C 
BRANCH  15  16
ATOM     16  OG  SER A   2      31.470 -10.631  30.154  0.00  0.00    -0.380 OA
ATOM     17  H   SER A   2      32.070 -11.043  29.483  0.00  0.00    +0.211 HD
ENDBRANCH  15  16
ENDBRANCH  12  15
ENDBRANCH   2  12
TORSDOF 8
REMARK  Name = ../refined-set-2016/3ipu/3ipu_pocket.pdb
REMARK  276 active torsions:
REMARK  status: ('A' for Active; 'I' for Inactive)
REMARK    1  A    between atoms: _1  and  _3
REMARK    2  A    between atoms: _3  and  _4
REMARK    3  A    between atoms: _3  and  _6
REMARK    4  A    between atoms: _6  and  _7
REMARK    5  A    between atoms: _12  and  _14
REMARK    6  A    between atoms: _14  and  _15
REMARK    7  A    between atoms: _14  and  _17
REMARK    8  A    between atoms: _17  and  _18
REMARK    9  A    between atoms: _18  and  _19
REMARK   10  A    between atoms: _19  and  _20
REMARK   11  A    between atoms: _29  and  _31
REMARK   12  A    between atoms: _31  and  _32
REMARK   13  A    between atoms: _31  and  _34
REMARK   14  A    between atoms: _34  and  _35
REMARK   15  A    between atoms: _37  and  _39
REMARK   16  A    between atoms: _39  and  _40
REMARK   17  A    between atoms: _39  and  _42
REMARK   18  A    between atoms: _42  and  _43
REMARK   19  A    between atoms: _49  and  _51
REMARK   20  A    between atoms: _51  and  _52
REMARK   21  A    between atoms: _51  and  _54
REMARK   22  A    between atoms: _54  and  _55
REMARK   23  A    between atoms: _55  and  _56
REMARK   24  A    between atoms: _56  and  _57
REMARK   25  A    between atoms: _66  and  _68
REMARK   26  A    between atoms: _68  and  _69
REMARK   27  A    between atoms: _68  and  _71
REMARK   28  A    between atoms: _71  and  _72
REMARK   29  A    between atoms: _75  and  _77
REMARK   30  A    between atoms: _77  and  _78
REMARK   31  A    between atoms: _77  and  _80
REMARK   32  A    between atoms: _83  and  _85
REMARK   33  A    between atoms: _85  and  _86
REMARK   34  A    between atoms: _85  and  _88
REMARK   35  A    between atoms: _88  and  _89
REMARK   36  A    between atoms: _89  and  _90
REMARK   37  A    between atoms: _90  and  _91
REMARK   38  A    between atoms: _100  and  _102
REMARK   39  A    between atoms: _102  and  _103
REMARK   40  A    between atoms: _102  and  _105
REMARK   41  A    between atoms: _105  and  _106
REMARK   42  A    between atoms: _112  and  _114
REMARK   43  A    between atoms: _114  and  _115
REMARK   44  A    between atoms: _118  and  _120
REMARK   45  A    between atoms: _120  and  _121
REMARK   46  A    between atoms: _120  and  _123
REMARK   47  A    between atoms: _123  and  _124
REMARK   48  A    between atoms: _129  and  _131
REMARK   49  A    between atoms: _131  and  _132
REMARK   50  A    between atoms: _131  and  _134
REMARK   51  A    between atoms: _134  and  _135
REMARK   52  A    between atoms: _141  and  _143
REMARK   53  A    between atoms: _143  and  _144
REMARK   54  A    between atoms: _143  and  _146
REMARK   55  A    between atoms: _146  and  _147
REMARK   56  A    between atoms: _150  and  _152
REMARK   57  A    between atoms: _152  and  _153
REMARK   58  A    between atoms: _152  and  _155
REMARK   59  A    between atoms: _155  and  _156
REMARK   60  A    between atoms: _156  and  _157
REMARK   61  A    between atoms: _160  and  _162
REMARK   62  A    between atoms: _162  and  _163
REMARK   63  A    between atoms: _162  and  _165
REMARK   64  A    between atoms: _165  and  _166
REMARK   65  A    between atoms: _169  and  _171
REMARK   66  A    between atoms: _171  and  _172
REMARK   67  A    between atoms: _175  and  _177
REMARK   68  A    between atoms: _177  and  _178
REMARK   69  A    between atoms: _177  and  _180
REMARK   70  A    between atoms: _180  and  _181
REMARK   71  A    between atoms: _184  and  _186
REMARK   72  A    between atoms: _186  and  _187
REMARK   73  A    between atoms: _186  and  _189
REMARK   74  A    between atoms: _192  and  _194
REMARK   75  A    between atoms: _194  and  _195
REMARK   76  A    between atoms: _194  and  _197
REMARK   77  A    between atoms: _197  and  _198
REMARK   78  A    between atoms: _200  and  _202
REMARK   79  A    between atoms: _202  and  _203
REMARK   80  A    between atoms: _202  and  _205
REMARK   81  A    between atoms: _208  and  _210
REMARK   82  A    between atoms: _210  and  _211
REMARK   83  A    between atoms: _210  and  _213
REMARK   84  A    between atoms: _213  and  _214
REMARK   85  A    between atoms: _214  and  _215
REMARK   86  A    between atoms: _218  and  _220
REMARK   87  A    between atoms: _220  and  _221
REMARK   88  A    between atoms: _220  and  _223
REMARK   89  A    between atoms: _223  and  _224
REMARK   90  A    between atoms: _227  and  _229
REMARK   91  A    between atoms: _229  and  _230
REMARK   92  A    between atoms: _233  and  _235
REMARK   93  A    between atoms: _235  and  _236
REMARK   94  A    between atoms: _235  and  _238
REMARK   95  A    between atoms: _238  and  _239
REMARK   96  A    between atoms: _242  and  _244
REMARK   97  A    between atoms: _244  and  _245
REMARK   98  A    between atoms: _244  and  _247
REMARK   99  A    between atoms: _247  and  _248
REMARK  100  A    between atoms: _248  and  _249
REMARK  101  A    between atoms: _252  and  _254
REMARK  102  A    between atoms: _254  and  _255
REMARK  103  A    between atoms: _254  and  _257
REMARK  104  A    between atoms: _260  and  _262
REMARK  105  A    between atoms: _262  and  _263
REMARK  106  A    between atoms: _262  and  _265
REMARK  107  A    between atoms: _265  and  _266
REMARK  108  A    between atoms: _266  and  _267
REMARK  109  A    between atoms: _269  and  _271
REMARK  110  A    between atoms: _271  and  _272
REMARK  111  A    between atoms: _271  and  _274
REMARK  112  A    between atoms: _274  and  _275
REMARK  113  A    between atoms: _278  and  _280
REMARK  114  A    between atoms: _280  and  _281
REMARK  115  A    between atoms: _280  and  _283
REMARK  116  A    between atoms: _283  and  _284
REMARK  117  A    between atoms: _287  and  _289
REMARK  118  A    between atoms: _289  and  _290
REMARK  119  A    between atoms: _289  and  _292
REMARK  120  A    between atoms: _292  and  _293
REMARK  121  A    between atoms: _293  and  _294
REMARK  122  A    between atoms: _297  and  _299
REMARK  123  A    between atoms: _299  and  _300
REMARK  124  A    between atoms: _299  and  _302
REMARK  125  A    between atoms: _302  and  _303
REMARK  126  A    between atoms: _306  and  _308
REMARK  127  A    between atoms: _308  and  _309
REMARK  128  A    between atoms: _308  and  _311
REMARK  129  A    between atoms: _311  and  _312
REMARK  130  A    between atoms: _314  and  _316
REMARK  131  A    between atoms: _316  and  _317
REMARK  132  A    between atoms: _316  and  _319
REMARK  133  A    between atoms: _319  and  _320
REMARK  134  A    between atoms: _320  and  _321
REMARK  135  A    between atoms: _321  and  _322
REMARK  136  A    between atoms: _331  and  _333
REMARK  137  A    between atoms: _333  and  _334
REMARK  138  A    between atoms: _333  and  _336
REMARK  139  A    between atoms: _336  and  _337
REMARK  140  A    between atoms: _337  and  _338
REMARK  141  A    between atoms: _338  and  _339
REMARK  142  A    between atoms: _348  and  _350
REMARK  143  A    between atoms: _350  and  _351
REMARK  144  A    between atoms: _350  and  _353
REMARK  145  A    between atoms: _353  and  _354
REMARK  146  A    between atoms: _357  and  _359
REMARK  147  A    between atoms: _359  and  _360
REMARK  148  A    between atoms: _359  and  _362
REMARK  149  A    between atoms: _362  and  _363
REMARK  150  A    between atoms: _366  and  _368
REMARK  151  A    between atoms: _368  and  _369
REMARK  152  A    between atoms: _368  and  _371
REMARK  153  A    between atoms: _371  and  _372
REMARK  154  A    between atoms: _378  and  _380
REMARK  155  A    between atoms: _380  and  _381
REMARK  156  A    between atoms: _380  and  _383
REMARK  157  A    between atoms: _383  and  _384
REMARK  158  A    between atoms: _387  and  _389
REMARK  159  A    between atoms: _389  and  _390
REMARK  160  A    between atoms: _389  and  _392
REMARK  161  A    between atoms: _392  and  _393
REMARK  162  A    between atoms: _393  and  _394
REMARK  163  A    between atoms: _394  and  _395
REMARK  164  A    between atoms: _395  and  _396
REMARK  165  A    between atoms: _400  and  _402
REMARK  166  A    between atoms: _402  and  _403
REMARK  167  A    between atoms: _402  and  _405
REMARK  168  A    between atoms: _405  and  _406
REMARK  169  A    between atoms: _409  and  _411
REMARK  170  A    between atoms: _411  and  _412
REMARK  171  A    between atoms: _411  and  _414
REMARK  172  A    between atoms: _414  and  _415
REMARK  173  A    between atoms: _421  and  _423
REMARK  174  A    between atoms: _423  and  _424
REMARK  175  A    between atoms: _423  and  _426
REMARK  176  A    between atoms: _426  and  _427
REMARK  177  A    between atoms: _432  and  _433
REMARK  178  A    between atoms: _435  and  _437
REMARK  179  A    between atoms: _437  and  _438
REMARK  180  A    between atoms: _437  and  _440
REMARK  181  A    between atoms: _440  and  _441
REMARK  182  A    between atoms: _447  and  _449
REMARK  183  A    between atoms: _449  and  _450
REMARK  184  A    between atoms: _453  and  _455
REMARK  185  A    between atoms: _455  and  _456
REMARK  186  A    between atoms: _458  and  _460
REMARK  187  A    between atoms: _460  and  _461
REMARK  188  A    between atoms: _460  and  _463
REMARK  189  A    between atoms: _463  and  _464
REMARK  190  A    between atoms: _467  and  _469
REMARK  191  A    between atoms: _469  and  _470
REMARK  192  A    between atoms: _469  and  _472
REMARK  193  A    between atoms: _472  and  _473
REMARK  194  A    between atoms: _473  and  _474
REMARK  195  A    between atoms: _479  and  _481
REMARK  196  A    between atoms: _481  and  _482
REMARK  197  A    between atoms: _481  and  _484
REMARK  198  A    between atoms: _484  and  _485
REMARK  199  A    between atoms: _491  and  _493
REMARK  200  A    between atoms: _493  and  _494
REMARK  201  A    between atoms: _493  and  _496
REMARK  202  A    between atoms: _496  and  _497
REMARK  203  A    between atoms: _500  and  _502
REMARK  204  A    between atoms: _502  and  _503
REMARK  205  A    between atoms: _502  and  _505
REMARK  206  A    between atoms: _505  and  _506
REMARK  207  A    between atoms: _512  and  _514
REMARK  208  A    between atoms: _514  and  _515
REMARK  209  A    between atoms: _514  and  _517
REMARK  210  A    between atoms: _517  and  _518
REMARK  211  A    between atoms: _520  and  _522
REMARK  212  A    between atoms: _522  and  _523
REMARK  213  A    between atoms: _522  and  _525
REMARK  214  A    between atoms: _525  and  _526
REMARK  215  A    between atoms: _529  and  _531
REMARK  216  A    between atoms: _531  and  _532
REMARK  217  A    between atoms: _531  and  _534
REMARK  218  A    between atoms: _534  and  _535
REMARK  219  A    between atoms: _540  and  _542
REMARK  220  A    between atoms: _542  and  _543
REMARK  221  A    between atoms: _542  and  _545
REMARK  222  A    between atoms: _545  and  _546
REMARK  223  A    between atoms: _548  and  _550
REMARK  224  A    between atoms: _550  and  _551
REMARK  225  A    between atoms: _550  and  _553
REMARK  226  A    between atoms: _553  and  _554
REMARK  227  A    between atoms: _554  and  _555
REMARK  228  A    between atoms: _560  and  _562
REMARK  229  A    between atoms: _562  and  _563
REMARK  230  A    between atoms: _562  and  _565
REMARK  231  A    between atoms: _568  and  _570
REMARK  232  A    between atoms: _570  and  _571
REMARK  233  A    between atoms: _570  and  _573
REMARK  234  A    between atoms: _573  and  _574
REMARK  235  A    between atoms: _580  and  _582
REMARK  236  A    between atoms: _582  and  _583
REMARK  237  A    between atoms: _586  and  _588
REMARK  238  A    between atoms: _588  and  _589
REMARK  239  A    between atoms: _588  and  _591
REMARK  240  A    between atoms: _591  and  _592
REMARK  241  A    between atoms: _595  and  _597
REMARK  242  A    between atoms: _597  and  _598
REMARK  243  A    between atoms: _597  and  _600
REMARK  244  A    between atoms: _600  and  _601
REMARK  245  A    between atoms: _601  and  _602
REMARK  246  A    between atoms: _607  and  _609
REMARK  247  A    between atoms: _609  and  _610
REMARK  248  A    between atoms: _609  and  _612
REMARK  249  A    between atoms: _612  and  _613
REMARK  250  A    between atoms: _613  and  _614
REMARK  251  A    between atoms: _614  and  _615
REMARK  252  A    between atoms: _615  and  _616
REMARK  253  A    between atoms: _620  and  _622
REMARK  254  A    between atoms: _622  and  _623
REMARK  255  A    between atoms: _622  and  _625
REMARK  256  A    between atoms: _625  and  _626
REMARK  257  A    between atoms: _626  and  _627
REMARK  258  A    between atoms: _627  and  _628
REMARK  259  A    between atoms: _628  and  _629
REMARK  260  A    between atoms: _633  and  _635
REMARK  261  A    between atoms: _635  and  _636
REMARK  262  A    between atoms: _635  and  _638
REMARK  263  A    between atoms: _638  and  _639
REMARK  264  A    between atoms: _643  and  _644
REMARK  265  A    between atoms: _649  and  _651
REMARK  266  A    between atoms: _651  and  _652
REMARK  267  A    between atoms: _651  and  _654
REMARK  268  A    between atoms: _654  and  _655
REMARK  269  A    between atoms: _658  and  _660
REMARK  270  A    between atoms: _660  and  _661
REMARK  271  A    between atoms: _660  and  _663
REMARK  272  A    between atoms: _663  and  _664
REMARK  273  A    between atoms: _666  and  _668
REMARK  274  A    between atoms: _668  and  _669
REMARK  275  A    between atoms: _668  and  _671
REMARK  276  A    between atoms: _671  and  _672
REMARK                            x       y       z     vdW  Elec       q    Type
REMARK                         _______ _______ _______ _____ _____    ______ ____
ROOT
ATOM      1  CG  TRP A   1      28.612 -17.495  26.807  0.00  0.00    -0.002 A 
ATOM      2  CD1 TRP A   1      28.166 -18.700  27.300  0.00  0.00    +0.068 A 
ATOM      3  NE1 TRP A   1      27.011 -19.061  26.671  0.00  0.00    -0.352 N 
ATOM      4  HE1 TRP A   1      26.457 -19.918  26.873  0.00  0.00    +0.166 HD
ATOM      5  CE2 TRP A   1      26.696 -18.115  25.729  0.00  0.00    +0.056 A 
ATOM      6  CZ2 TRP A   1      25.634 -18.065  24.835  0.00  0.00    +0.017 A 
ATOM      7  CH2 TRP A   1      25.565 -16.993  23.994  0.00  0.00    +0.001 A 
ATOM      8  CZ3 TRP A   1      26.537 -15.981  24.022  0.00  0.00    +0.000 A 
ATOM      9  CE3 TRP A   1      27.603 -16.031  24.912  0.00  0.00    +0.001 A 
ATOM     10  CD2 TRP A   1      27.688 -17.116  25.786  0.00  0.00    +0.013 A 
ENDROOT
BRANCH   1  11
ATOM     11  CB  TRP A   1      29.833 -16.764  27.199  0.00  0.00    +0.053 C 
BRANCH  11  12
ATOM     12  CA  TRP A   1      30.328 -17.112  28.605  0.00  0.00    +0.137 C 
BRANCH  12  13
ATOM     13  N   TRP A   1      29.399 -16.596  29.620  0.00  0.00    -0.239 NA
ATOM     14  H   TRP A   1      29.178 -15.580  29.646  0.00  0.00    +0.142 HD
ENDBRANCH  12  13
BRANCH  12  15
ATOM     15  C   TRP A   1      31.783 -16.717  28.732  0.00  0.00    +0.224 C 
ATOM     16  O   TRP A   1      32.646 -17.499  28.340  0.00  0.00    -0.287 OA
ENDBRANCH  12  15
ENDBRANCH  11  12
ENDBRANCH   1  11
TORSDOF 4
REMARK  Name = ../refined-set-2016/3ipu/3ipu_pocket.pdb
REMARK  276 active torsions:
REMARK  status: ('A' for Active; 'I' for Inactive)
REMARK    1  A    between atoms: _1  and  _3
REMARK    2  A    between atoms: _3  and  _4
REMARK    3  A    between atoms: _3  and  _6
REMARK    4  A    between atoms: _6  and  _7
REMARK    5  A    between atoms: _12  and  _14
REMARK    6  A    between atoms: _14  and  _15
REMARK    7  A    between atoms: _14  and  _17
REMARK    8  A    between atoms: _17  and  _18
REMARK    9  A    between atoms: _18  and  _19
REMARK   10  A    between atoms: _19  and  _20
REMARK   11  A    between atoms: _29  and  _31
REMARK   12  A    between atoms: _31  and  _32
REMARK   13  A    between atoms: _31  and  _34
REMARK   14  A    between atoms: _34  and  _35
REMARK   15  A    between atoms: _37  and  _39
REMARK   16  A    between atoms: _39  and  _40
REMARK   17  A    between atoms: _39  and  _42
REMARK   18  A    between atoms: _42  and  _43
REMARK   19  A    between atoms: _49  and  _51
REMARK   20  A    between atoms: _51  and  _52
REMARK   21  A    between atoms: _51  and  _54
REMARK   22  A    between atoms: _54  and  _55
REMARK   23  A    between atoms: _55  and  _56
REMARK   24  A    between atoms: _56  and  _57
REMARK   25  A    between atoms: _66  and  _68
REMARK   26  A    between atoms: _68  and  _69
REMARK   27  A    between atoms: _68  and  _71
REMARK   28  A    between atoms: _71  and  _72
REMARK   29  A    between atoms: _75  and  _77
REMARK   30  A    between atoms: _77  and  _78
REMARK   31  A    between atoms: _77  and  _80
REMARK   32  A    between atoms: _83  and  _85
REMARK   33  A    between atoms: _85  and  _86
REMARK   34  A    between atoms: _85  and  _88
REMARK   35  A    between atoms: _88  and  _89
REMARK   36  A    between atoms: _89  and  _90
REMARK   37  A    between atoms: _90  and  _91
REMARK   38  A    between atoms: _100  and  _102
REMARK   39  A    between atoms: _102  and  _103
REMARK   40  A    between atoms: _102  and  _105
REMARK   41  A    between atoms: _105  and  _106
REMARK   42  A    between atoms: _112  and  _114
REMARK   43  A    between atoms: _114  and  _115
REMARK   44  A    between atoms: _118  and  _120
REMARK   45  A    between atoms: _120  and  _121
REMARK   46  A    between atoms: _120  and  _123
REMARK   47  A    between atoms: _123  and  _124
REMARK   48  A    between atoms: _129  and  _131
REMARK   49  A    between atoms: _131  and  _132
REMARK   50  A    between atoms: _131  and  _134
REMARK   51  A    between atoms: _134  and  _135
REMARK   52  A    between atoms: _141  and  _143
REMARK   53  A    between atoms: _143  and  _144
REMARK   54  A    between atoms: _143  and  _146
REMARK   55  A    between atoms: _146  and  _147
REMARK   56  A    between atoms: _150  and  _152
REMARK   57  A    between atoms: _152  and  _153
REMARK   58  A    between atoms: _152  and  _155
REMARK   59  A    between atoms: _155  and  _156
REMARK   60  A    between atoms: _156  and  _157
REMARK   61  A    between atoms: _160  and  _162
REMARK   62  A    between atoms: _162  and  _163
REMARK   63  A    between atoms: _162  and  _165
REMARK   64  A    between atoms: _165  and  _166
REMARK   65  A    between atoms: _169  and  _171
REMARK   66  A    between atoms: _171  and  _172
REMARK   67  A    between atoms: _175  and  _177
REMARK   68  A    between atoms: _177  and  _178
REMARK   69  A    between atoms: _177  and  _180
REMARK   70  A    between atoms: _180  and  _181
REMARK   71  A    between atoms: _184  and  _186
REMARK   72  A    between atoms: _186  and  _187
REMARK   73  A    between atoms: _186  and  _189
REMARK   74  A    between atoms: _192  and  _194
REMARK   75  A    between atoms: _194  and  _195
REMARK   76  A    between atoms: _194  and  _197
REMARK   77  A    between atoms: _197  and  _198
REMARK   78  A    between atoms: _200  and  _202
REMARK   79  A    between atoms: _202  and  _203
REMARK   80  A    between atoms: _202  and  _205
REMARK   81  A    between atoms: _208  and  _210
REMARK   82  A    between atoms: _210  and  _211
REMARK   83  A    between atoms: _210  and  _213
REMARK   84  A    between atoms: _213  and  _214
REMARK   85  A    between atoms: _214  and  _215
REMARK   86  A    between atoms: _218  and  _220
REMARK   87  A    between atoms: _220  and  _221
REMARK   88  A    between atoms: _220  and  _223
REMARK   89  A    between atoms: _223  and  _224
REMARK   90  A    between atoms: _227  and  _229
REMARK   91  A    between atoms: _229  and  _230
REMARK   92  A    between atoms: _233  and  _235
REMARK   93  A    between atoms: _235  and  _236
REMARK   94  A    between atoms: _235  and  _238
REMARK   95  A    between atoms: _238  and  _239
REMARK   96  A    between atoms: _242  and  _244
REMARK   97  A    between atoms: _244  and  _245
REMARK   98  A    between atoms: _244  and  _247
REMARK   99  A    between atoms: _247  and  _248
REMARK  100  A    between atoms: _248  and  _249
REMARK  101  A    between atoms: _252  and  _254
REMARK  102  A    between atoms: _254  and  _255
REMARK  103  A    between atoms: _254  and  _257
REMARK  104  A    between atoms: _260  and  _262
REMARK  105  A    between atoms: _262  and  _263
REMARK  106  A    between atoms: _262  and  _265
REMARK  107  A    between atoms: _265  and  _266
REMARK  108  A    between atoms: _266  and  _267
REMARK  109  A    between atoms: _269  and  _271
REMARK  110  A    between atoms: _271  and  _272
REMARK  111  A    between atoms: _271  and  _274
REMARK  112  A    between atoms: _274  and  _275
REMARK  113  A    between atoms: _278  and  _280
REMARK  114  A    between atoms: _280  and  _281
REMARK  115  A    between atoms: _280  and  _283
REMARK  116  A    between atoms: _283  and  _284
REMARK  117  A    between atoms: _287  and  _289
REMARK  118  A    between atoms: _289  and  _290
REMARK  119  A    between atoms: _289  and  _292
REMARK  120  A    between atoms: _292  and  _293
REMARK  121  A    between atoms: _293  and  _294
REMARK  122  A    between atoms: _297  and  _299
REMARK  123  A    between atoms: _299  and  _300
REMARK  124  A    between atoms: _299  and  _302
REMARK  125  A    between atoms: _302  and  _303
REMARK  126  A    between atoms: _306  and  _308
REMARK  127  A    between atoms: _308  and  _309
REMARK  128  A    between atoms: _308  and  _311
REMARK  129  A    between atoms: _311  and  _312
REMARK  130  A    between atoms: _314  and  _316
REMARK  131  A    between atoms: _316  and  _317
REMARK  132  A    between atoms: _316  and  _319
REMARK  133  A    between atoms: _319  and  _320
REMARK  134  A    between atoms: _320  and  _321
REMARK  135  A    between atoms: _321  and  _322
REMARK  136  A    between atoms: _331  and  _333
REMARK  137  A    between atoms: _333  and  _334
REMARK  138  A    between atoms: _333  and  _336
REMARK  139  A    between atoms: _336  and  _337
REMARK  140  A    between atoms: _337  and  _338
REMARK  141  A    between atoms: _338  and  _339
REMARK  142  A    between atoms: _348  and  _350
REMARK  143  A    between atoms: _350  and  _351
REMARK  144  A    between atoms: _350  and  _353
REMARK  145  A    between atoms: _353  and  _354
REMARK  146  A    between atoms: _357  and  _359
REMARK  147  A    between atoms: _359  and  _360
REMARK  148  A    between atoms: _359  and  _362
REMARK  149  A    between atoms: _362  and  _363
REMARK  150  A    between atoms: _366  and  _368
REMARK  151  A    between atoms: _368  and  _369
REMARK  152  A    between atoms: _368  and  _371
REMARK  153  A    between atoms: _371  and  _372
REMARK  154  A    between atoms: _378  and  _380
REMARK  155  A    between atoms: _380  and  _381
REMARK  156  A    between atoms: _380  and  _383
REMARK  157  A    between atoms: _383  and  _384
REMARK  158  A    between atoms: _387  and  _389
REMARK  159  A    between atoms: _389  and  _390
REMARK  160  A    between atoms: _389  and  _392
REMARK  161  A    between atoms: _392  and  _393
REMARK  162  A    between atoms: _393  and  _394
REMARK  163  A    between atoms: _394  and  _395
REMARK  164  A    between atoms: _395  and  _396
REMARK  165  A    between atoms: _400  and  _402
REMARK  166  A    between atoms: _402  and  _403
REMARK  167  A    between atoms: _402  and  _405
REMARK  168  A    between atoms: _405  and  _406
REMARK  169  A    between atoms: _409  and  _411
REMARK  170  A    between atoms: _411  and  _412
REMARK  171  A    between atoms: _411  and  _414
REMARK  172  A    between atoms: _414  and  _415
REMARK  173  A    between atoms: _421  and  _423
REMARK  174  A    between atoms: _423  and  _424
REMARK  175  A    between atoms: _423  and  _426
REMARK  176  A    between atoms: _426  and  _427
REMARK  177  A    between atoms: _432  and  _433
REMARK  178  A    between atoms: _435  and  _437
REMARK  179  A    between atoms: _437  and  _438
REMARK  180  A    between atoms: _437  and  _440
REMARK  181  A    between atoms: _440  and  _441
REMARK  182  A    between atoms: _447  and  _449
REMARK  183  A    between atoms: _449  and  _450
REMARK  184  A    between atoms: _453  and  _455
REMARK  185  A    between atoms: _455  and  _456
REMARK  186  A    between atoms: _458  and  _460
REMARK  187  A    between atoms: _460  and  _461
REMARK  188  A    between atoms: _460  and  _463
REMARK  189  A    between atoms: _463  and  _464
REMARK  190  A    between atoms: _467  and  _469
REMARK  191  A    between atoms: _469  and  _470
REMARK  192  A    between atoms: _469  and  _472
REMARK  193  A    between atoms: _472  and  _473
REMARK  194  A    between atoms: _473  and  _474
REMARK  195  A    between atoms: _479  and  _481
REMARK  196  A    between atoms: _481  and  _482
REMARK  197  A    between atoms: _481  and  _484
REMARK  198  A    between atoms: _484  and  _485
REMARK  199  A    between atoms: _491  and  _493
REMARK  200  A    between atoms: _493  and  _494
REMARK  201  A    between atoms: _493  and  _496
REMARK  202  A    between atoms: _496  and  _497
REMARK  203  A    between atoms: _500  and  _502
REMARK  204  A    between atoms: _502  and  _503
REMARK  205  A    between atoms: _502  and  _505
REMARK  206  A    between atoms: _505  and  _506
REMARK  207  A    between atoms: _512  and  _514
REMARK  208  A    between atoms: _514  and  _515
REMARK  209  A    between atoms: _514  and  _517
REMARK  210  A    between atoms: _517  and  _518
REMARK  211  A    between atoms: _520  and  _522
REMARK  212  A    between atoms: _522  and  _523
REMARK  213  A    between atoms: _522  and  _525
REMARK  214  A    between atoms: _525  and  _526
REMARK  215  A    between atoms: _529  and  _531
REMARK  216  A    between atoms: _531  and  _532
REMARK  217  A    between atoms: _531  and  _534
REMARK  218  A    between atoms: _534  and  _535
REMARK  219  A    between atoms: _540  and  _542
REMARK  220  A    between atoms: _542  and  _543
REMARK  221  A    between atoms: _542  and  _545
REMARK  222  A    between atoms: _545  and  _546
REMARK  223  A    between atoms: _548  and  _550
REMARK  224  A    between atoms: _550  and  _551
REMARK  225  A    between atoms: _550  and  _553
REMARK  226  A    between atoms: _553  and  _554
REMARK  227  A    between atoms: _554  and  _555
REMARK  228  A    between atoms: _560  and  _562
REMARK  229  A    between atoms: _562  and  _563
REMARK  230  A    between atoms: _562  and  _565
REMARK  231  A    between atoms: _568  and  _570
REMARK  232  A    between atoms: _570  and  _571
REMARK  233  A    between atoms: _570  and  _573
REMARK  234  A    between atoms: _573  and  _574
REMARK  235  A    between atoms: _580  and  _582
REMARK  236  A    between atoms: _582  and  _583
REMARK  237  A    between atoms: _586  and  _588
REMARK  238  A    between atoms: _588  and  _589
REMARK  239  A    between atoms: _588  and  _591
REMARK  240  A    between atoms: _591  and  _592
REMARK  241  A    between atoms: _595  and  _597
REMARK  242  A    between atoms: _597  and  _598
REMARK  243  A    between atoms: _597  and  _600
REMARK  244  A    between atoms: _600  and  _601
REMARK  245  A    between atoms: _601  and  _602
REMARK  246  A    between atoms: _607  and  _609
REMARK  247  A    between atoms: _609  and  _610
REMARK  248  A    between atoms: _609  and  _612
REMARK  249  A    between atoms: _612  and  _613
REMARK  250  A    between atoms: _613  and  _614
REMARK  251  A    between atoms: _614  and  _615
REMARK  252  A    between atoms: _615  and  _616
REMARK  253  A    between atoms: _620  and  _622
REMARK  254  A    between atoms: _622  and  _623
REMARK  255  A    between atoms: _622  and  _625
REMARK  256  A    between atoms: _625  and  _626
REMARK  257  A    between atoms: _626  and  _627
REMARK  258  A    between atoms: _627  and  _628
REMARK  259  A    between atoms: _628  and  _629
REMARK  260  A    between atoms: _633  and  _635
REMARK  261  A    between atoms: _635  and  _636
REMARK  262  A    between atoms: _635  and  _638
REMARK  263  A    between atoms: _638  and  _639
REMARK  264  A    between atoms: _643  and  _644
REMARK  265  A    between atoms: _649  and  _651
REMARK  266  A    between atoms: _651  and  _652
REMARK  267  A    between atoms: _651  and  _654
REMARK  268  A    between atoms: _654  and  _655
REMARK  269  A    between atoms: _658  and  _660
REMARK  270  A    between atoms: _660  and  _661
REMARK  271  A    between atoms: _660  and  _663
REMARK  272  A    between atoms: _663  and  _664
REMARK  273  A    between atoms: _666  and  _668
REMARK  274  A    between atoms: _668  and  _669
REMARK  275  A    between atoms: _668  and  _671
REMARK  276  A    between atoms: _671  and  _672
REMARK                            x       y       z     vdW  Elec       q    Type
REMARK                         _______ _______ _______ _____ _____    ______ ____
ROOT
ATOM      1  O   HOH     1      15.684 -14.167  20.482  0.00  0.00    +0.000 OA
ENDROOT
TORSDOF 0
REMARK  Name = ../refined-set-2016/3ipu/3ipu_pocket.pdb
REMARK  276 active torsions:
REMARK  status: ('A' for Active; 'I' for Inactive)
REMARK    1  A    between atoms: _1  and  _3
REMARK    2  A    between atoms: _3  and  _4
REMARK    3  A    between atoms: _3  and  _6
REMARK    4  A    between atoms: _6  and  _7
REMARK    5  A    between atoms: _12  and  _14
REMARK    6  A    between atoms: _14  and  _15
REMARK    7  A    between atoms: _14  and  _17
REMARK    8  A    between atoms: _17  and  _18
REMARK    9  A    between atoms: _18  and  _19
REMARK   10  A    between atoms: _19  and  _20
REMARK   11  A    between atoms: _29  and  _31
REMARK   12  A    between atoms: _31  and  _32
REMARK   13  A    between atoms: _31  and  _34
REMARK   14  A    between atoms: _34  and  _35
REMARK   15  A    between atoms: _37  and  _39
REMARK   16  A    between atoms: _39  and  _40
REMARK   17  A    between atoms: _39  and  _42
REMARK   18  A    between atoms: _42  and  _43
REMARK   19  A    between atoms: _49  and  _51
REMARK   20  A    between atoms: _51  and  _52
REMARK   21  A    between atoms: _51  and  _54
REMARK   22  A    between atoms: _54  and  _55
REMARK   23  A    between atoms: _55  and  _56
REMARK   24  A    between atoms: _56  and  _57
REMARK   25  A    between atoms: _66  and  _68
REMARK   26  A    between atoms: _68  and  _69
REMARK   27  A    between atoms: _68  and  _71
REMARK   28  A    between atoms: _71  and  _72
REMARK   29  A    between atoms: _75  and  _77
REMARK   30  A    between atoms: _77  and  _78
REMARK   31  A    between atoms: _77  and  _80
REMARK   32  A    between atoms: _83  and  _85
REMARK   33  A    between atoms: _85  and  _86
REMARK   34  A    between atoms: _85  and  _88
REMARK   35  A    between atoms: _88  and  _89
REMARK   36  A    between atoms: _89  and  _90
REMARK   37  A    between atoms: _90  and  _91
REMARK   38  A    between atoms: _100  and  _102
REMARK   39  A    between atoms: _102  and  _103
REMARK   40  A    between atoms: _102  and  _105
REMARK   41  A    between atoms: _105  and  _106
REMARK   42  A    between atoms: _112  and  _114
REMARK   43  A    between atoms: _114  and  _115
REMARK   44  A    between atoms: _118  and  _120
REMARK   45  A    between atoms: _120  and  _121
REMARK   46  A    between atoms: _120  and  _123
REMARK   47  A    between atoms: _123  and  _124
REMARK   48  A    between atoms: _129  and  _131
REMARK   49  A    between atoms: _131  and  _132
REMARK   50  A    between atoms: _131  and  _134
REMARK   51  A    between atoms: _134  and  _135
REMARK   52  A    between atoms: _141  and  _143
REMARK   53  A    between atoms: _143  and  _144
REMARK   54  A    between atoms: _143  and  _146
REMARK   55  A    between atoms: _146  and  _147
REMARK   56  A    between atoms: _150  and  _152
REMARK   57  A    between atoms: _152  and  _153
REMARK   58  A    between atoms: _152  and  _155
REMARK   59  A    between atoms: _155  and  _156
REMARK   60  A    between atoms: _156  and  _157
REMARK   61  A    between atoms: _160  and  _162
REMARK   62  A    between atoms: _162  and  _163
REMARK   63  A    between atoms: _162  and  _165
REMARK   64  A    between atoms: _165  and  _166
REMARK   65  A    between atoms: _169  and  _171
REMARK   66  A    between atoms: _171  and  _172
REMARK   67  A    between atoms: _175  and  _177
REMARK   68  A    between atoms: _177  and  _178
REMARK   69  A    between atoms: _177  and  _180
REMARK   70  A    between atoms: _180  and  _181
REMARK   71  A    between atoms: _184  and  _186
REMARK   72  A    between atoms: _186  and  _187
REMARK   73  A    between atoms: _186  and  _189
REMARK   74  A    between atoms: _192  and  _194
REMARK   75  A    between atoms: _194  and  _195
REMARK   76  A    between atoms: _194  and  _197
REMARK   77  A    between atoms: _197  and  _198
REMARK   78  A    between atoms: _200  and  _202
REMARK   79  A    between atoms: _202  and  _203
REMARK   80  A    between atoms: _202  and  _205
REMARK   81  A    between atoms: _208  and  _210
REMARK   82  A    between atoms: _210  and  _211
REMARK   83  A    between atoms: _210  and  _213
REMARK   84  A    between atoms: _213  and  _214
REMARK   85  A    between atoms: _214  and  _215
REMARK   86  A    between atoms: _218  and  _220
REMARK   87  A    between atoms: _220  and  _221
REMARK   88  A    between atoms: _220  and  _223
REMARK   89  A    between atoms: _223  and  _224
REMARK   90  A    between atoms: _227  and  _229
REMARK   91  A    between atoms: _229  and  _230
REMARK   92  A    between atoms: _233  and  _235
REMARK   93  A    between atoms: _235  and  _236
REMARK   94  A    between atoms: _235  and  _238
REMARK   95  A    between atoms: _238  and  _239
REMARK   96  A    between atoms: _242  and  _244
REMARK   97  A    between atoms: _244  and  _245
REMARK   98  A    between atoms: _244  and  _247
REMARK   99  A    between atoms: _247  and  _248
REMARK  100  A    between atoms: _248  and  _249
REMARK  101  A    between atoms: _252  and  _254
REMARK  102  A    between atoms: _254  and  _255
REMARK  103  A    between atoms: _254  and  _257
REMARK  104  A    between atoms: _260  and  _262
REMARK  105  A    between atoms: _262  and  _263
REMARK  106  A    between atoms: _262  and  _265
REMARK  107  A    between atoms: _265  and  _266
REMARK  108  A    between atoms: _266  and  _267
REMARK  109  A    between atoms: _269  and  _271
REMARK  110  A    between atoms: _271  and  _272
REMARK  111  A    between atoms: _271  and  _274
REMARK  112  A    between atoms: _274  and  _275
REMARK  113  A    between atoms: _278  and  _280
REMARK  114  A    between atoms: _280  and  _281
REMARK  115  A    between atoms: _280  and  _283
REMARK  116  A    between atoms: _283  and  _284
REMARK  117  A    between atoms: _287  and  _289
REMARK  118  A    between atoms: _289  and  _290
REMARK  119  A    between atoms: _289  and  _292
REMARK  120  A    between atoms: _292  and  _293
REMARK  121  A    between atoms: _293  and  _294
REMARK  122  A    between atoms: _297  and  _299
REMARK  123  A    between atoms: _299  and  _300
REMARK  124  A    between atoms: _299  and  _302
REMARK  125  A    between atoms: _302  and  _303
REMARK  126  A    between atoms: _306  and  _308
REMARK  127  A    between atoms: _308  and  _309
REMARK  128  A    between atoms: _308  and  _311
REMARK  129  A    between atoms: _311  and  _312
REMARK  130  A    between atoms: _314  and  _316
REMARK  131  A    between atoms: _316  and  _317
REMARK  132  A    between atoms: _316  and  _319
REMARK  133  A    between atoms: _319  and  _320
REMARK  134  A    between atoms: _320  and  _321
REMARK  135  A    between atoms: _321  and  _322
REMARK  136  A    between atoms: _331  and  _333
REMARK  137  A    between atoms: _333  and  _334
REMARK  138  A    between atoms: _333  and  _336
REMARK  139  A    between atoms: _336  and  _337
REMARK  140  A    between atoms: _337  and  _338
REMARK  141  A    between atoms: _338  and  _339
REMARK  142  A    between atoms: _348  and  _350
REMARK  143  A    between atoms: _350  and  _351
REMARK  144  A    between atoms: _350  and  _353
REMARK  145  A    between atoms: _353  and  _354
REMARK  146  A    between atoms: _357  and  _359
REMARK  147  A    between atoms: _359  and  _360
REMARK  148  A    between atoms: _359  and  _362
REMARK  149  A    between atoms: _362  and  _363
REMARK  150  A    between atoms: _366  and  _368
REMARK  151  A    between atoms: _368  and  _369
REMARK  152  A    between atoms: _368  and  _371
REMARK  153  A    between atoms: _371  and  _372
REMARK  154  A    between atoms: _378  and  _380
REMARK  155  A    between atoms: _380  and  _381
REMARK  156  A    between atoms: _380  and  _383
REMARK  157  A    between atoms: _383  and  _384
REMARK  158  A    between atoms: _387  and  _389
REMARK  159  A    between atoms: _389  and  _390
REMARK  160  A    between atoms: _389  and  _392
REMARK  161  A    between atoms: _392  and  _393
REMARK  162  A    between atoms: _393  and  _394
REMARK  163  A    between atoms: _394  and  _395
REMARK  164  A    between atoms: _395  and  _396
REMARK  165  A    between atoms: _400  and  _402
REMARK  166  A    between atoms: _402  and  _403
REMARK  167  A    between atoms: _402  and  _405
REMARK  168  A    between atoms: _405  and  _406
REMARK  169  A    between atoms: _409  and  _411
REMARK  170  A    between atoms: _411  and  _412
REMARK  171  A    between atoms: _411  and  _414
REMARK  172  A    between atoms: _414  and  _415
REMARK  173  A    between atoms: _421  and  _423
REMARK  174  A    between atoms: _423  and  _424
REMARK  175  A    between atoms: _423  and  _426
REMARK  176  A    between atoms: _426  and  _427
REMARK  177  A    between atoms: _432  and  _433
REMARK  178  A    between atoms: _435  and  _437
REMARK  179  A    between atoms: _437  and  _438
REMARK  180  A    between atoms: _437  and  _440
REMARK  181  A    between atoms: _440  and  _441
REMARK  182  A    between atoms: _447  and  _449
REMARK  183  A    between atoms: _449  and  _450
REMARK  184  A    between atoms: _453  and  _455
REMARK  185  A    between atoms: _455  and  _456
REMARK  186  A    between atoms: _458  and  _460
REMARK  187  A    between atoms: _460  and  _461
REMARK  188  A    between atoms: _460  and  _463
REMARK  189  A    between atoms: _463  and  _464
REMARK  190  A    between atoms: _467  and  _469
REMARK  191  A    between atoms: _469  and  _470
REMARK  192  A    between atoms: _469  and  _472
REMARK  193  A    between atoms: _472  and  _473
REMARK  194  A    between atoms: _473  and  _474
REMARK  195  A    between atoms: _479  and  _481
REMARK  196  A    between atoms: _481  and  _482
REMARK  197  A    between atoms: _481  and  _484
REMARK  198  A    between atoms: _484  and  _485
REMARK  199  A    between atoms: _491  and  _493
REMARK  200  A    between atoms: _493  and  _494
REMARK  201  A    between atoms: _493  and  _496
REMARK  202  A    between atoms: _496  and  _497
REMARK  203  A    between atoms: _500  and  _502
REMARK  204  A    between atoms: _502  and  _503
REMARK  205  A    between atoms: _502  and  _505
REMARK  206  A    between atoms: _505  and  _506
REMARK  207  A    between atoms: _512  and  _514
REMARK  208  A    between atoms: _514  and  _515
REMARK  209  A    between atoms: _514  and  _517
REMARK  210  A    between atoms: _517  and  _518
REMARK  211  A    between atoms: _520  and  _522
REMARK  212  A    between atoms: _522  and  _523
REMARK  213  A    between atoms: _522  and  _525
REMARK  214  A    between atoms: _525  and  _526
REMARK  215  A    between atoms: _529  and  _531
REMARK  216  A    between atoms: _531  and  _532
REMARK  217  A    between atoms: _531  and  _534
REMARK  218  A    between atoms: _534  and  _535
REMARK  219  A    between atoms: _540  and  _542
REMARK  220  A    between atoms: _542  and  _543
REMARK  221  A    between atoms: _542  and  _545
REMARK  222  A    between atoms: _545  and  _546
REMARK  223  A    between atoms: _548  and  _550
REMARK  224  A    between atoms: _550  and  _551
REMARK  225  A    between atoms: _550  and  _553
REMARK  226  A    between atoms: _553  and  _554
REMARK  227  A    between atoms: _554  and  _555
REMARK  228  A    between atoms: _560  and  _562
REMARK  229  A    between atoms: _562  and  _563
REMARK  230  A    between atoms: _562  and  _565
REMARK  231  A    between atoms: _568  and  _570
REMARK  232  A    between atoms: _570  and  _571
REMARK  233  A    between atoms: _570  and  _573
REMARK  234  A    between atoms: _573  and  _574
REMARK  235  A    between atoms: _580  and  _582
REMARK  236  A    between atoms: _582  and  _583
REMARK  237  A    between atoms: _586  and  _588
REMARK  238  A    between atoms: _588  and  _589
REMARK  239  A    between atoms: _588  and  _591
REMARK  240  A    between atoms: _591  and  _592
REMARK  241  A    between atoms: _595  and  _597
REMARK  242  A    between atoms: _597  and  _598
REMARK  243  A    between atoms: _597  and  _600
REMARK  244  A    between atoms: _600  and  _601
REMARK  245  A    between atoms: _601  and  _602
REMARK  246  A    between atoms: _607  and  _609
REMARK  247  A    between atoms: _609  and  _610
REMARK  248  A    between atoms: _609  and  _612
REMARK  249  A    between atoms: _612  and  _613
REMARK  250  A    between atoms: _613  and  _614
REMARK  251  A    between atoms: _614  and  _615
REMARK  252  A    between atoms: _615  and  _616
REMARK  253  A    between atoms: _620  and  _622
REMARK  254  A    between atoms: _622  and  _623
REMARK  255  A    between atoms: _622  and  _625
REMARK  256  A    between atoms: _625  and  _626
REMARK  257  A    between atoms: _626  and  _627
REMARK  258  A    between atoms: _627  and  _628
REMARK  259  A    between atoms: _628  and  _629
REMARK  260  A    between atoms: _633  and  _635
REMARK  261  A    between atoms: _635  and  _636
REMARK  262  A    between atoms: _635  and  _638
REMARK  263  A    between atoms: _638  and  _639
REMARK  264  A    between atoms: _643  and  _644
REMARK  265  A    between atoms: _649  and  _651
REMARK  266  A    between atoms: _651  and  _652
REMARK  267  A    between atoms: _651  and  _654
REMARK  268  A    between atoms: _654  and  _655
REMARK  269  A    between atoms: _658  and  _660
REMARK  270  A    between atoms: _660  and  _661
REMARK  271  A    between atoms: _660  and  _663
REMARK  272  A    between atoms: _663  and  _664
REMARK  273  A    between atoms: _666  and  _668
REMARK  274  A    between atoms: _668  and  _669
REMARK  275  A    between atoms: _668  and  _671
REMARK  276  A    between atoms: _671  and  _672
REMARK                            x       y       z     vdW  Elec       q    Type
REMARK                         _______ _______ _______ _____ _____    ______ ____
ROOT
ATOM      1  O   HOH     1      11.484 -19.798  21.364  0.00  0.00    +0.000 OA
ENDROOT
TORSDOF 0
REMARK  Name = ../refined-set-2016/3ipu/3ipu_pocket.pdb
REMARK  276 active torsions:
REMARK  status: ('A' for Active; 'I' for Inactive)
REMARK    1  A    between atoms: _1  and  _3
REMARK    2  A    between atoms: _3  and  _4
REMARK    3  A    between atoms: _3  and  _6
REMARK    4  A    between atoms: _6  and  _7
REMARK    5  A    between atoms: _12  and  _14
REMARK    6  A    between atoms: _14  and  _15
REMARK    7  A    between atoms: _14  and  _17
REMARK    8  A    between atoms: _17  and  _18
REMARK    9  A    between atoms: _18  and  _19
REMARK   10  A    between atoms: _19  and  _20
REMARK   11  A    between atoms: _29  and  _31
REMARK   12  A    between atoms: _31  and  _32
REMARK   13  A    between atoms: _31  and  _34
REMARK   14  A    between atoms: _34  and  _35
REMARK   15  A    between atoms: _37  and  _39
REMARK   16  A    between atoms: _39  and  _40
REMARK   17  A    between atoms: _39  and  _42
REMARK   18  A    between atoms: _42  and  _43
REMARK   19  A    between atoms: _49  and  _51
REMARK   20  A    between atoms: _51  and  _52
REMARK   21  A    between atoms: _51  and  _54
REMARK   22  A    between atoms: _54  and  _55
REMARK   23  A    between atoms: _55  and  _56
REMARK   24  A    between atoms: _56  and  _57
REMARK   25  A    between atoms: _66  and  _68
REMARK   26  A    between atoms: _68  and  _69
REMARK   27  A    between atoms: _68  and  _71
REMARK   28  A    between atoms: _71  and  _72
REMARK   29  A    between atoms: _75  and  _77
REMARK   30  A    between atoms: _77  and  _78
REMARK   31  A    between atoms: _77  and  _80
REMARK   32  A    between atoms: _83  and  _85
REMARK   33  A    between atoms: _85  and  _86
REMARK   34  A    between atoms: _85  and  _88
REMARK   35  A    between atoms: _88  and  _89
REMARK   36  A    between atoms: _89  and  _90
REMARK   37  A    between atoms: _90  and  _91
REMARK   38  A    between atoms: _100  and  _102
REMARK   39  A    between atoms: _102  and  _103
REMARK   40  A    between atoms: _102  and  _105
REMARK   41  A    between atoms: _105  and  _106
REMARK   42  A    between atoms: _112  and  _114
REMARK   43  A    between atoms: _114  and  _115
REMARK   44  A    between atoms: _118  and  _120
REMARK   45  A    between atoms: _120  and  _121
REMARK   46  A    between atoms: _120  and  _123
REMARK   47  A    between atoms: _123  and  _124
REMARK   48  A    between atoms: _129  and  _131
REMARK   49  A    between atoms: _131  and  _132
REMARK   50  A    between atoms: _131  and  _134
REMARK   51  A    between atoms: _134  and  _135
REMARK   52  A    between atoms: _141  and  _143
REMARK   53  A    between atoms: _143  and  _144
REMARK   54  A    between atoms: _143  and  _146
REMARK   55  A    between atoms: _146  and  _147
REMARK   56  A    between atoms: _150  and  _152
REMARK   57  A    between atoms: _152  and  _153
REMARK   58  A    between atoms: _152  and  _155
REMARK   59  A    between atoms: _155  and  _156
REMARK   60  A    between atoms: _156  and  _157
REMARK   61  A    between atoms: _160  and  _162
REMARK   62  A    between atoms: _162  and  _163
REMARK   63  A    between atoms: _162  and  _165
REMARK   64  A    between atoms: _165  and  _166
REMARK   65  A    between atoms: _169  and  _171
REMARK   66  A    between atoms: _171  and  _172
REMARK   67  A    between atoms: _175  and  _177
REMARK   68  A    between atoms: _177  and  _178
REMARK   69  A    between atoms: _177  and  _180
REMARK   70  A    between atoms: _180  and  _181
REMARK   71  A    between atoms: _184  and  _186
REMARK   72  A    between atoms: _186  and  _187
REMARK   73  A    between atoms: _186  and  _189
REMARK   74  A    between atoms: _192  and  _194
REMARK   75  A    between atoms: _194  and  _195
REMARK   76  A    between atoms: _194  and  _197
REMARK   77  A    between atoms: _197  and  _198
REMARK   78  A    between atoms: _200  and  _202
REMARK   79  A    between atoms: _202  and  _203
REMARK   80  A    between atoms: _202  and  _205
REMARK   81  A    between atoms: _208  and  _210
REMARK   82  A    between atoms: _210  and  _211
REMARK   83  A    between atoms: _210  and  _213
REMARK   84  A    between atoms: _213  and  _214
REMARK   85  A    between atoms: _214  and  _215
REMARK   86  A    between atoms: _218  and  _220
REMARK   87  A    between atoms: _220  and  _221
REMARK   88  A    between atoms: _220  and  _223
REMARK   89  A    between atoms: _223  and  _224
REMARK   90  A    between atoms: _227  and  _229
REMARK   91  A    between atoms: _229  and  _230
REMARK   92  A    between atoms: _233  and  _235
REMARK   93  A    between atoms: _235  and  _236
REMARK   94  A    between atoms: _235  and  _238
REMARK   95  A    between atoms: _238  and  _239
REMARK   96  A    between atoms: _242  and  _244
REMARK   97  A    between atoms: _244  and  _245
REMARK   98  A    between atoms: _244  and  _247
REMARK   99  A    between atoms: _247  and  _248
REMARK  100  A    between atoms: _248  and  _249
REMARK  101  A    between atoms: _252  and  _254
REMARK  102  A    between atoms: _254  and  _255
REMARK  103  A    between atoms: _254  and  _257
REMARK  104  A    between atoms: _260  and  _262
REMARK  105  A    between atoms: _262  and  _263
REMARK  106  A    between atoms: _262  and  _265
REMARK  107  A    between atoms: _265  and  _266
REMARK  108  A    between atoms: _266  and  _267
REMARK  109  A    between atoms: _269  and  _271
REMARK  110  A    between atoms: _271  and  _272
REMARK  111  A    between atoms: _271  and  _274
REMARK  112  A    between atoms: _274  and  _275
REMARK  113  A    between atoms: _278  and  _280
REMARK  114  A    between atoms: _280  and  _281
REMARK  115  A    between atoms: _280  and  _283
REMARK  116  A    between atoms: _283  and  _284
REMARK  117  A    between atoms: _287  and  _289
REMARK  118  A    between atoms: _289  and  _290
REMARK  119  A    between atoms: _289  and  _292
REMARK  120  A    between atoms: _292  and  _293
REMARK  121  A    between atoms: _293  and  _294
REMARK  122  A    between atoms: _297  and  _299
REMARK  123  A    between atoms: _299  and  _300
REMARK  124  A    between atoms: _299  and  _302
REMARK  125  A    between atoms: _302  and  _303
REMARK  126  A    between atoms: _306  and  _308
REMARK  127  A    between atoms: _308  and  _309
REMARK  128  A    between atoms: _308  and  _311
REMARK  129  A    between atoms: _311  and  _312
REMARK  130  A    between atoms: _314  and  _316
REMARK  131  A    between atoms: _316  and  _317
REMARK  132  A    between atoms: _316  and  _319
REMARK  133  A    between atoms: _319  and  _320
REMARK  134  A    between atoms: _320  and  _321
REMARK  135  A    between atoms: _321  and  _322
REMARK  136  A    between atoms: _331  and  _333
REMARK  137  A    between atoms: _333  and  _334
REMARK  138  A    between atoms: _333  and  _336
REMARK  139  A    between atoms: _336  and  _337
REMARK  140  A    between atoms: _337  and  _338
REMARK  141  A    between atoms: _338  and  _339
REMARK  142  A    between atoms: _348  and  _350
REMARK  143  A    between atoms: _350  and  _351
REMARK  144  A    between atoms: _350  and  _353
REMARK  145  A    between atoms: _353  and  _354
REMARK  146  A    between atoms: _357  and  _359
REMARK  147  A    between atoms: _359  and  _360
REMARK  148  A    between atoms: _359  and  _362
REMARK  149  A    between atoms: _362  and  _363
REMARK  150  A    between atoms: _366  and  _368
REMARK  151  A    between atoms: _368  and  _369
REMARK  152  A    between atoms: _368  and  _371
REMARK  153  A    between atoms: _371  and  _372
REMARK  154  A    between atoms: _378  and  _380
REMARK  155  A    between atoms: _380  and  _381
REMARK  156  A    between atoms: _380  and  _383
REMARK  157  A    between atoms: _383  and  _384
REMARK  158  A    between atoms: _387  and  _389
REMARK  159  A    between atoms: _389  and  _390
REMARK  160  A    between atoms: _389  and  _392
REMARK  161  A    between atoms: _392  and  _393
REMARK  162  A    between atoms: _393  and  _394
REMARK  163  A    between atoms: _394  and  _395
REMARK  164  A    between atoms: _395  and  _396
REMARK  165  A    between atoms: _400  and  _402
REMARK  166  A    between atoms: _402  and  _403
REMARK  167  A    between atoms: _402  and  _405
REMARK  168  A    between atoms: _405  and  _406
REMARK  169  A    between atoms: _409  and  _411
REMARK  170  A    between atoms: _411  and  _412
REMARK  171  A    between atoms: _411  and  _414
REMARK  172  A    between atoms: _414  and  _415
REMARK  173  A    between atoms: _421  and  _423
REMARK  174  A    between atoms: _423  and  _424
REMARK  175  A    between atoms: _423  and  _426
REMARK  176  A    between atoms: _426  and  _427
REMARK  177  A    between atoms: _432  and  _433
REMARK  178  A    between atoms: _435  and  _437
REMARK  179  A    between atoms: _437  and  _438
REMARK  180  A    between atoms: _437  and  _440
REMARK  181  A    between atoms: _440  and  _441
REMARK  182  A    between atoms: _447  and  _449
REMARK  183  A    between atoms: _449  and  _450
REMARK  184  A    between atoms: _453  and  _455
REMARK  185  A    between atoms: _455  and  _456
REMARK  186  A    between atoms: _458  and  _460
REMARK  187  A    between atoms: _460  and  _461
REMARK  188  A    between atoms: _460  and  _463
REMARK  189  A    between atoms: _463  and  _464
REMARK  190  A    between atoms: _467  and  _469
REMARK  191  A    between atoms: _469  and  _470
REMARK  192  A    between atoms: _469  and  _472
REMARK  193  A    between atoms: _472  and  _473
REMARK  194  A    between atoms: _473  and  _474
REMARK  195  A    between atoms: _479  and  _481
REMARK  196  A    between atoms: _481  and  _482
REMARK  197  A    between atoms: _481  and  _484
REMARK  198  A    between atoms: _484  and  _485
REMARK  199  A    between atoms: _491  and  _493
REMARK  200  A    between atoms: _493  and  _494
REMARK  201  A    between atoms: _493  and  _496
REMARK  202  A    between atoms: _496  and  _497
REMARK  203  A    between atoms: _500  and  _502
REMARK  204  A    between atoms: _502  and  _503
REMARK  205  A    between atoms: _502  and  _505
REMARK  206  A    between atoms: _505  and  _506
REMARK  207  A    between atoms: _512  and  _514
REMARK  208  A    between atoms: _514  and  _515
REMARK  209  A    between atoms: _514  and  _517
REMARK  210  A    between atoms: _517  and  _518
REMARK  211  A    between atoms: _520  and  _522
REMARK  212  A    between atoms: _522  and  _523
REMARK  213  A    between atoms: _522  and  _525
REMARK  214  A    between atoms: _525  and  _526
REMARK  215  A    between atoms: _529  and  _531
REMARK  216  A    between atoms: _531  and  _532
REMARK  217  A    between atoms: _531  and  _534
REMARK  218  A    between atoms: _534  and  _535
REMARK  219  A    between atoms: _540  and  _542
REMARK  220  A    between atoms: _542  and  _543
REMARK  221  A    between atoms: _542  and  _545
REMARK  222  A    between atoms: _545  and  _546
REMARK  223  A    between atoms: _548  and  _550
REMARK  224  A    between atoms: _550  and  _551
REMARK  225  A    between atoms: _550  and  _553
REMARK  226  A    between atoms: _553  and  _554
REMARK  227  A    between atoms: _554  and  _555
REMARK  228  A    between atoms: _560  and  _562
REMARK  229  A    between atoms: _562  and  _563
REMARK  230  A    between atoms: _562  and  _565
REMARK  231  A    between atoms: _568  and  _570
REMARK  232  A    between atoms: _570  and  _571
REMARK  233  A    between atoms: _570  and  _573
REMARK  234  A    between atoms: _573  and  _574
REMARK  235  A    between atoms: _580  and  _582
REMARK  236  A    between atoms: _582  and  _583
REMARK  237  A    between atoms: _586  and  _588
REMARK  238  A    between atoms: _588  and  _589
REMARK  239  A    between atoms: _588  and  _591
REMARK  240  A    between atoms: _591  and  _592
REMARK  241  A    between atoms: _595  and  _597
REMARK  242  A    between atoms: _597  and  _598
REMARK  243  A    between atoms: _597  and  _600
REMARK  244  A    between atoms: _600  and  _601
REMARK  245  A    between atoms: _601  and  _602
REMARK  246  A    between atoms: _607  and  _609
REMARK  247  A    between atoms: _609  and  _610
REMARK  248  A    between atoms: _609  and  _612
REMARK  249  A    between atoms: _612  and  _613
REMARK  250  A    between atoms: _613  and  _614
REMARK  251  A    between atoms: _614  and  _615
REMARK  252  A    between atoms: _615  and  _616
REMARK  253  A    between atoms: _620  and  _622
REMARK  254  A    between atoms: _622  and  _623
REMARK  255  A    between atoms: _622  and  _625
REMARK  256  A    between atoms: _625  and  _626
REMARK  257  A    between atoms: _626  and  _627
REMARK  258  A    between atoms: _627  and  _628
REMARK  259  A    between atoms: _628  and  _629
REMARK  260  A    between atoms: _633  and  _635
REMARK  261  A    between atoms: _635  and  _636
REMARK  262  A    between atoms: _635  and  _638
REMARK  263  A    between atoms: _638  and  _639
REMARK  264  A    between atoms: _643  and  _644
REMARK  265  A    between atoms: _649  and  _651
REMARK  266  A    between atoms: _651  and  _652
REMARK  267  A    between atoms: _651  and  _654
REMARK  268  A    between atoms: _654  and  _655
REMARK  269  A    between atoms: _658  and  _660
REMARK  270  A    between atoms: _660  and  _661
REMARK  271  A    between atoms: _660  and  _663
REMARK  272  A    between atoms: _663  and  _664
REMARK  273  A    between atoms: _666  and  _668
REMARK  274  A    between atoms: _668  and  _669
REMARK  275  A    between atoms: _668  and  _671
REMARK  276  A    between atoms: _671  and  _672
REMARK                            x       y       z     vdW  Elec       q    Type
REMARK                         _______ _______ _______ _____ _____    ______ ____
ROOT
ATOM      1  O   HOH     1      15.167 -19.338  20.158  0.00  0.00    +0.000 OA
ENDROOT
TORSDOF 0
REMARK  Name = ../refined-set-2016/3ipu/3ipu_pocket.pdb
REMARK  276 active torsions:
REMARK  status: ('A' for Active; 'I' for Inactive)
REMARK    1  A    between atoms: _1  and  _3
REMARK    2  A    between atoms: _3  and  _4
REMARK    3  A    between atoms: _3  and  _6
REMARK    4  A    between atoms: _6  and  _7
REMARK    5  A    between atoms: _12  and  _14
REMARK    6  A    between atoms: _14  and  _15
REMARK    7  A    between atoms: _14  and  _17
REMARK    8  A    between atoms: _17  and  _18
REMARK    9  A    between atoms: _18  and  _19
REMARK   10  A    between atoms: _19  and  _20
REMARK   11  A    between atoms: _29  and  _31
REMARK   12  A    between atoms: _31  and  _32
REMARK   13  A    between atoms: _31  and  _34
REMARK   14  A    between atoms: _34  and  _35
REMARK   15  A    between atoms: _37  and  _39
REMARK   16  A    between atoms: _39  and  _40
REMARK   17  A    between atoms: _39  and  _42
REMARK   18  A    between atoms: _42  and  _43
REMARK   19  A    between atoms: _49  and  _51
REMARK   20  A    between atoms: _51  and  _52
REMARK   21  A    between atoms: _51  and  _54
REMARK   22  A    between atoms: _54  and  _55
REMARK   23  A    between atoms: _55  and  _56
REMARK   24  A    between atoms: _56  and  _57
REMARK   25  A    between atoms: _66  and  _68
REMARK   26  A    between atoms: _68  and  _69
REMARK   27  A    between atoms: _68  and  _71
REMARK   28  A    between atoms: _71  and  _72
REMARK   29  A    between atoms: _75  and  _77
REMARK   30  A    between atoms: _77  and  _78
REMARK   31  A    between atoms: _77  and  _80
REMARK   32  A    between atoms: _83  and  _85
REMARK   33  A    between atoms: _85  and  _86
REMARK   34  A    between atoms: _85  and  _88
REMARK   35  A    between atoms: _88  and  _89
REMARK   36  A    between atoms: _89  and  _90
REMARK   37  A    between atoms: _90  and  _91
REMARK   38  A    between atoms: _100  and  _102
REMARK   39  A    between atoms: _102  and  _103
REMARK   40  A    between atoms: _102  and  _105
REMARK   41  A    between atoms: _105  and  _106
REMARK   42  A    between atoms: _112  and  _114
REMARK   43  A    between atoms: _114  and  _115
REMARK   44  A    between atoms: _118  and  _120
REMARK   45  A    between atoms: _120  and  _121
REMARK   46  A    between atoms: _120  and  _123
REMARK   47  A    between atoms: _123  and  _124
REMARK   48  A    between atoms: _129  and  _131
REMARK   49  A    between atoms: _131  and  _132
REMARK   50  A    between atoms: _131  and  _134
REMARK   51  A    between atoms: _134  and  _135
REMARK   52  A    between atoms: _141  and  _143
REMARK   53  A    between atoms: _143  and  _144
REMARK   54  A    between atoms: _143  and  _146
REMARK   55  A    between atoms: _146  and  _147
REMARK   56  A    between atoms: _150  and  _152
REMARK   57  A    between atoms: _152  and  _153
REMARK   58  A    between atoms: _152  and  _155
REMARK   59  A    between atoms: _155  and  _156
REMARK   60  A    between atoms: _156  and  _157
REMARK   61  A    between atoms: _160  and  _162
REMARK   62  A    between atoms: _162  and  _163
REMARK   63  A    between atoms: _162  and  _165
REMARK   64  A    between atoms: _165  and  _166
REMARK   65  A    between atoms: _169  and  _171
REMARK   66  A    between atoms: _171  and  _172
REMARK   67  A    between atoms: _175  and  _177
REMARK   68  A    between atoms: _177  and  _178
REMARK   69  A    between atoms: _177  and  _180
REMARK   70  A    between atoms: _180  and  _181
REMARK   71  A    between atoms: _184  and  _186
REMARK   72  A    between atoms: _186  and  _187
REMARK   73  A    between atoms: _186  and  _189
REMARK   74  A    between atoms: _192  and  _194
REMARK   75  A    between atoms: _194  and  _195
REMARK   76  A    between atoms: _194  and  _197
REMARK   77  A    between atoms: _197  and  _198
REMARK   78  A    between atoms: _200  and  _202
REMARK   79  A    between atoms: _202  and  _203
REMARK   80  A    between atoms: _202  and  _205
REMARK   81  A    between atoms: _208  and  _210
REMARK   82  A    between atoms: _210  and  _211
REMARK   83  A    between atoms: _210  and  _213
REMARK   84  A    between atoms: _213  and  _214
REMARK   85  A    between atoms: _214  and  _215
REMARK   86  A    between atoms: _218  and  _220
REMARK   87  A    between atoms: _220  and  _221
REMARK   88  A    between atoms: _220  and  _223
REMARK   89  A    between atoms: _223  and  _224
REMARK   90  A    between atoms: _227  and  _229
REMARK   91  A    between atoms: _229  and  _230
REMARK   92  A    between atoms: _233  and  _235
REMARK   93  A    between atoms: _235  and  _236
REMARK   94  A    between atoms: _235  and  _238
REMARK   95  A    between atoms: _238  and  _239
REMARK   96  A    between atoms: _242  and  _244
REMARK   97  A    between atoms: _244  and  _245
REMARK   98  A    between atoms: _244  and  _247
REMARK   99  A    between atoms: _247  and  _248
REMARK  100  A    between atoms: _248  and  _249
REMARK  101  A    between atoms: _252  and  _254
REMARK  102  A    between atoms: _254  and  _255
REMARK  103  A    between atoms: _254  and  _257
REMARK  104  A    between atoms: _260  and  _262
REMARK  105  A    between atoms: _262  and  _263
REMARK  106  A    between atoms: _262  and  _265
REMARK  107  A    between atoms: _265  and  _266
REMARK  108  A    between atoms: _266  and  _267
REMARK  109  A    between atoms: _269  and  _271
REMARK  110  A    between atoms: _271  and  _272
REMARK  111  A    between atoms: _271  and  _274
REMARK  112  A    between atoms: _274  and  _275
REMARK  113  A    between atoms: _278  and  _280
REMARK  114  A    between atoms: _280  and  _281
REMARK  115  A    between atoms: _280  and  _283
REMARK  116  A    between atoms: _283  and  _284
REMARK  117  A    between atoms: _287  and  _289
REMARK  118  A    between atoms: _289  and  _290
REMARK  119  A    between atoms: _289  and  _292
REMARK  120  A    between atoms: _292  and  _293
REMARK  121  A    between atoms: _293  and  _294
REMARK  122  A    between atoms: _297  and  _299
REMARK  123  A    between atoms: _299  and  _300
REMARK  124  A    between atoms: _299  and  _302
REMARK  125  A    between atoms: _302  and  _303
REMARK  126  A    between atoms: _306  and  _308
REMARK  127  A    between atoms: _308  and  _309
REMARK  128  A    between atoms: _308  and  _311
REMARK  129  A    between atoms: _311  and  _312
REMARK  130  A    between atoms: _314  and  _316
REMARK  131  A    between atoms: _316  and  _317
REMARK  132  A    between atoms: _316  and  _319
REMARK  133  A    between atoms: _319  and  _320
REMARK  134  A    between atoms: _320  and  _321
REMARK  135  A    between atoms: _321  and  _322
REMARK  136  A    between atoms: _331  and  _333
REMARK  137  A    between atoms: _333  and  _334
REMARK  138  A    between atoms: _333  and  _336
REMARK  139  A    between atoms: _336  and  _337
REMARK  140  A    between atoms: _337  and  _338
REMARK  141  A    between atoms: _338  and  _339
REMARK  142  A    between atoms: _348  and  _350
REMARK  143  A    between atoms: _350  and  _351
REMARK  144  A    between atoms: _350  and  _353
REMARK  145  A    between atoms: _353  and  _354
REMARK  146  A    between atoms: _357  and  _359
REMARK  147  A    between atoms: _359  and  _360
REMARK  148  A    between atoms: _359  and  _362
REMARK  149  A    between atoms: _362  and  _363
REMARK  150  A    between atoms: _366  and  _368
REMARK  151  A    between atoms: _368  and  _369
REMARK  152  A    between atoms: _368  and  _371
REMARK  153  A    between atoms: _371  and  _372
REMARK  154  A    between atoms: _378  and  _380
REMARK  155  A    between atoms: _380  and  _381
REMARK  156  A    between atoms: _380  and  _383
REMARK  157  A    between atoms: _383  and  _384
REMARK  158  A    between atoms: _387  and  _389
REMARK  159  A    between atoms: _389  and  _390
REMARK  160  A    between atoms: _389  and  _392
REMARK  161  A    between atoms: _392  and  _393
REMARK  162  A    between atoms: _393  and  _394
REMARK  163  A    between atoms: _394  and  _395
REMARK  164  A    between atoms: _395  and  _396
REMARK  165  A    between atoms: _400  and  _402
REMARK  166  A    between atoms: _402  and  _403
REMARK  167  A    between atoms: _402  and  _405
REMARK  168  A    between atoms: _405  and  _406
REMARK  169  A    between atoms: _409  and  _411
REMARK  170  A    between atoms: _411  and  _412
REMARK  171  A    between atoms: _411  and  _414
REMARK  172  A    between atoms: _414  and  _415
REMARK  173  A    between atoms: _421  and  _423
REMARK  174  A    between atoms: _423  and  _424
REMARK  175  A    between atoms: _423  and  _426
REMARK  176  A    between atoms: _426  and  _427
REMARK  177  A    between atoms: _432  and  _433
REMARK  178  A    between atoms: _435  and  _437
REMARK  179  A    between atoms: _437  and  _438
REMARK  180  A    between atoms: _437  and  _440
REMARK  181  A    between atoms: _440  and  _441
REMARK  182  A    between atoms: _447  and  _449
REMARK  183  A    between atoms: _449  and  _450
REMARK  184  A    between atoms: _453  and  _455
REMARK  185  A    between atoms: _455  and  _456
REMARK  186  A    between atoms: _458  and  _460
REMARK  187  A    between atoms: _460  and  _461
REMARK  188  A    between atoms: _460  and  _463
REMARK  189  A    between atoms: _463  and  _464
REMARK  190  A    between atoms: _467  and  _469
REMARK  191  A    between atoms: _469  and  _470
REMARK  192  A    between atoms: _469  and  _472
REMARK  193  A    between atoms: _472  and  _473
REMARK  194  A    between atoms: _473  and  _474
REMARK  195  A    between atoms: _479  and  _481
REMARK  196  A    between atoms: _481  and  _482
REMARK  197  A    between atoms: _481  and  _484
REMARK  198  A    between atoms: _484  and  _485
REMARK  199  A    between atoms: _491  and  _493
REMARK  200  A    between atoms: _493  and  _494
REMARK  201  A    between atoms: _493  and  _496
REMARK  202  A    between atoms: _496  and  _497
REMARK  203  A    between atoms: _500  and  _502
REMARK  204  A    between atoms: _502  and  _503
REMARK  205  A    between atoms: _502  and  _505
REMARK  206  A    between atoms: _505  and  _506
REMARK  207  A    between atoms: _512  and  _514
REMARK  208  A    between atoms: _514  and  _515
REMARK  209  A    between atoms: _514  and  _517
REMARK  210  A    between atoms: _517  and  _518
REMARK  211  A    between atoms: _520  and  _522
REMARK  212  A    between atoms: _522  and  _523
REMARK  213  A    between atoms: _522  and  _525
REMARK  214  A    between atoms: _525  and  _526
REMARK  215  A    between atoms: _529  and  _531
REMARK  216  A    between atoms: _531  and  _532
REMARK  217  A    between atoms: _531  and  _534
REMARK  218  A    between atoms: _534  and  _535
REMARK  219  A    between atoms: _540  and  _542
REMARK  220  A    between atoms: _542  and  _543
REMARK  221  A    between atoms: _542  and  _545
REMARK  222  A    between atoms: _545  and  _546
REMARK  223  A    between atoms: _548  and  _550
REMARK  224  A    between atoms: _550  and  _551
REMARK  225  A    between atoms: _550  and  _553
REMARK  226  A    between atoms: _553  and  _554
REMARK  227  A    between atoms: _554  and  _555
REMARK  228  A    between atoms: _560  and  _562
REMARK  229  A    between atoms: _562  and  _563
REMARK  230  A    between atoms: _562  and  _565
REMARK  231  A    between atoms: _568  and  _570
REMARK  232  A    between atoms: _570  and  _571
REMARK  233  A    between atoms: _570  and  _573
REMARK  234  A    between atoms: _573  and  _574
REMARK  235  A    between atoms: _580  and  _582
REMARK  236  A    between atoms: _582  and  _583
REMARK  237  A    between atoms: _586  and  _588
REMARK  238  A    between atoms: _588  and  _589
REMARK  239  A    between atoms: _588  and  _591
REMARK  240  A    between atoms: _591  and  _592
REMARK  241  A    between atoms: _595  and  _597
REMARK  242  A    between atoms: _597  and  _598
REMARK  243  A    between atoms: _597  and  _600
REMARK  244  A    between atoms: _600  and  _601
REMARK  245  A    between atoms: _601  and  _602
REMARK  246  A    between atoms: _607  and  _609
REMARK  247  A    between atoms: _609  and  _610
REMARK  248  A    between atoms: _609  and  _612
REMARK  249  A    between atoms: _612  and  _613
REMARK  250  A    between atoms: _613  and  _614
REMARK  251  A    between atoms: _614  and  _615
REMARK  252  A    between atoms: _615  and  _616
REMARK  253  A    between atoms: _620  and  _622
REMARK  254  A    between atoms: _622  and  _623
REMARK  255  A    between atoms: _622  and  _625
REMARK  256  A    between atoms: _625  and  _626
REMARK  257  A    between atoms: _626  and  _627
REMARK  258  A    between atoms: _627  and  _628
REMARK  259  A    between atoms: _628  and  _629
REMARK  260  A    between atoms: _633  and  _635
REMARK  261  A    between atoms: _635  and  _636
REMARK  262  A    between atoms: _635  and  _638
REMARK  263  A    between atoms: _638  and  _639
REMARK  264  A    between atoms: _643  and  _644
REMARK  265  A    between atoms: _649  and  _651
REMARK  266  A    between atoms: _651  and  _652
REMARK  267  A    between atoms: _651  and  _654
REMARK  268  A    between atoms: _654  and  _655
REMARK  269  A    between atoms: _658  and  _660
REMARK  270  A    between atoms: _660  and  _661
REMARK  271  A    between atoms: _660  and  _663
REMARK  272  A    between atoms: _663  and  _664
REMARK  273  A    between atoms: _666  and  _668
REMARK  274  A    between atoms: _668  and  _669
REMARK  275  A    between atoms: _668  and  _671
REMARK  276  A    between atoms: _671  and  _672
REMARK                            x       y       z     vdW  Elec       q    Type
REMARK                         _______ _______ _______ _____ _____    ______ ____
ROOT
ATOM      1  O   HOH     1      14.928 -19.199  23.211  0.00  0.00    +0.000 OA
ENDROOT
TORSDOF 0
REMARK  Name = ../refined-set-2016/3ipu/3ipu_pocket.pdb
REMARK  276 active torsions:
REMARK  status: ('A' for Active; 'I' for Inactive)
REMARK    1  A    between atoms: _1  and  _3
REMARK    2  A    between atoms: _3  and  _4
REMARK    3  A    between atoms: _3  and  _6
REMARK    4  A    between atoms: _6  and  _7
REMARK    5  A    between atoms: _12  and  _14
REMARK    6  A    between atoms: _14  and  _15
REMARK    7  A    between atoms: _14  and  _17
REMARK    8  A    between atoms: _17  and  _18
REMARK    9  A    between atoms: _18  and  _19
REMARK   10  A    between atoms: _19  and  _20
REMARK   11  A    between atoms: _29  and  _31
REMARK   12  A    between atoms: _31  and  _32
REMARK   13  A    between atoms: _31  and  _34
REMARK   14  A    between atoms: _34  and  _35
REMARK   15  A    between atoms: _37  and  _39
REMARK   16  A    between atoms: _39  and  _40
REMARK   17  A    between atoms: _39  and  _42
REMARK   18  A    between atoms: _42  and  _43
REMARK   19  A    between atoms: _49  and  _51
REMARK   20  A    between atoms: _51  and  _52
REMARK   21  A    between atoms: _51  and  _54
REMARK   22  A    between atoms: _54  and  _55
REMARK   23  A    between atoms: _55  and  _56
REMARK   24  A    between atoms: _56  and  _57
REMARK   25  A    between atoms: _66  and  _68
REMARK   26  A    between atoms: _68  and  _69
REMARK   27  A    between atoms: _68  and  _71
REMARK   28  A    between atoms: _71  and  _72
REMARK   29  A    between atoms: _75  and  _77
REMARK   30  A    between atoms: _77  and  _78
REMARK   31  A    between atoms: _77  and  _80
REMARK   32  A    between atoms: _83  and  _85
REMARK   33  A    between atoms: _85  and  _86
REMARK   34  A    between atoms: _85  and  _88
REMARK   35  A    between atoms: _88  and  _89
REMARK   36  A    between atoms: _89  and  _90
REMARK   37  A    between atoms: _90  and  _91
REMARK   38  A    between atoms: _100  and  _102
REMARK   39  A    between atoms: _102  and  _103
REMARK   40  A    between atoms: _102  and  _105
REMARK   41  A    between atoms: _105  and  _106
REMARK   42  A    between atoms: _112  and  _114
REMARK   43  A    between atoms: _114  and  _115
REMARK   44  A    between atoms: _118  and  _120
REMARK   45  A    between atoms: _120  and  _121
REMARK   46  A    between atoms: _120  and  _123
REMARK   47  A    between atoms: _123  and  _124
REMARK   48  A    between atoms: _129  and  _131
REMARK   49  A    between atoms: _131  and  _132
REMARK   50  A    between atoms: _131  and  _134
REMARK   51  A    between atoms: _134  and  _135
REMARK   52  A    between atoms: _141  and  _143
REMARK   53  A    between atoms: _143  and  _144
REMARK   54  A    between atoms: _143  and  _146
REMARK   55  A    between atoms: _146  and  _147
REMARK   56  A    between atoms: _150  and  _152
REMARK   57  A    between atoms: _152  and  _153
REMARK   58  A    between atoms: _152  and  _155
REMARK   59  A    between atoms: _155  and  _156
REMARK   60  A    between atoms: _156  and  _157
REMARK   61  A    between atoms: _160  and  _162
REMARK   62  A    between atoms: _162  and  _163
REMARK   63  A    between atoms: _162  and  _165
REMARK   64  A    between atoms: _165  and  _166
REMARK   65  A    between atoms: _169  and  _171
REMARK   66  A    between atoms: _171  and  _172
REMARK   67  A    between atoms: _175  and  _177
REMARK   68  A    between atoms: _177  and  _178
REMARK   69  A    between atoms: _177  and  _180
REMARK   70  A    between atoms: _180  and  _181
REMARK   71  A    between atoms: _184  and  _186
REMARK   72  A    between atoms: _186  and  _187
REMARK   73  A    between atoms: _186  and  _189
REMARK   74  A    between atoms: _192  and  _194
REMARK   75  A    between atoms: _194  and  _195
REMARK   76  A    between atoms: _194  and  _197
REMARK   77  A    between atoms: _197  and  _198
REMARK   78  A    between atoms: _200  and  _202
REMARK   79  A    between atoms: _202  and  _203
REMARK   80  A    between atoms: _202  and  _205
REMARK   81  A    between atoms: _208  and  _210
REMARK   82  A    between atoms: _210  and  _211
REMARK   83  A    between atoms: _210  and  _213
REMARK   84  A    between atoms: _213  and  _214
REMARK   85  A    between atoms: _214  and  _215
REMARK   86  A    between atoms: _218  and  _220
REMARK   87  A    between atoms: _220  and  _221
REMARK   88  A    between atoms: _220  and  _223
REMARK   89  A    between atoms: _223  and  _224
REMARK   90  A    between atoms: _227  and  _229
REMARK   91  A    between atoms: _229  and  _230
REMARK   92  A    between atoms: _233  and  _235
REMARK   93  A    between atoms: _235  and  _236
REMARK   94  A    between atoms: _235  and  _238
REMARK   95  A    between atoms: _238  and  _239
REMARK   96  A    between atoms: _242  and  _244
REMARK   97  A    between atoms: _244  and  _245
REMARK   98  A    between atoms: _244  and  _247
REMARK   99  A    between atoms: _247  and  _248
REMARK  100  A    between atoms: _248  and  _249
REMARK  101  A    between atoms: _252  and  _254
REMARK  102  A    between atoms: _254  and  _255
REMARK  103  A    between atoms: _254  and  _257
REMARK  104  A    between atoms: _260  and  _262
REMARK  105  A    between atoms: _262  and  _263
REMARK  106  A    between atoms: _262  and  _265
REMARK  107  A    between atoms: _265  and  _266
REMARK  108  A    between atoms: _266  and  _267
REMARK  109  A    between atoms: _269  and  _271
REMARK  110  A    between atoms: _271  and  _272
REMARK  111  A    between atoms: _271  and  _274
REMARK  112  A    between atoms: _274  and  _275
REMARK  113  A    between atoms: _278  and  _280
REMARK  114  A    between atoms: _280  and  _281
REMARK  115  A    between atoms: _280  and  _283
REMARK  116  A    between atoms: _283  and  _284
REMARK  117  A    between atoms: _287  and  _289
REMARK  118  A    between atoms: _289  and  _290
REMARK  119  A    between atoms: _289  and  _292
REMARK  120  A    between atoms: _292  and  _293
REMARK  121  A    between atoms: _293  and  _294
REMARK  122  A    between atoms: _297  and  _299
REMARK  123  A    between atoms: _299  and  _300
REMARK  124  A    between atoms: _299  and  _302
REMARK  125  A    between atoms: _302  and  _303
REMARK  126  A    between atoms: _306  and  _308
REMARK  127  A    between atoms: _308  and  _309
REMARK  128  A    between atoms: _308  and  _311
REMARK  129  A    between atoms: _311  and  _312
REMARK  130  A    between atoms: _314  and  _316
REMARK  131  A    between atoms: _316  and  _317
REMARK  132  A    between atoms: _316  and  _319
REMARK  133  A    between atoms: _319  and  _320
REMARK  134  A    between atoms: _320  and  _321
REMARK  135  A    between atoms: _321  and  _322
REMARK  136  A    between atoms: _331  and  _333
REMARK  137  A    between atoms: _333  and  _334
REMARK  138  A    between atoms: _333  and  _336
REMARK  139  A    between atoms: _336  and  _337
REMARK  140  A    between atoms: _337  and  _338
REMARK  141  A    between atoms: _338  and  _339
REMARK  142  A    between atoms: _348  and  _350
REMARK  143  A    between atoms: _350  and  _351
REMARK  144  A    between atoms: _350  and  _353
REMARK  145  A    between atoms: _353  and  _354
REMARK  146  A    between atoms: _357  and  _359
REMARK  147  A    between atoms: _359  and  _360
REMARK  148  A    between atoms: _359  and  _362
REMARK  149  A    between atoms: _362  and  _363
REMARK  150  A    between atoms: _366  and  _368
REMARK  151  A    between atoms: _368  and  _369
REMARK  152  A    between atoms: _368  and  _371
REMARK  153  A    between atoms: _371  and  _372
REMARK  154  A    between atoms: _378  and  _380
REMARK  155  A    between atoms: _380  and  _381
REMARK  156  A    between atoms: _380  and  _383
REMARK  157  A    between atoms: _383  and  _384
REMARK  158  A    between atoms: _387  and  _389
REMARK  159  A    between atoms: _389  and  _390
REMARK  160  A    between atoms: _389  and  _392
REMARK  161  A    between atoms: _392  and  _393
REMARK  162  A    between atoms: _393  and  _394
REMARK  163  A    between atoms: _394  and  _395
REMARK  164  A    between atoms: _395  and  _396
REMARK  165  A    between atoms: _400  and  _402
REMARK  166  A    between atoms: _402  and  _403
REMARK  167  A    between atoms: _402  and  _405
REMARK  168  A    between atoms: _405  and  _406
REMARK  169  A    between atoms: _409  and  _411
REMARK  170  A    between atoms: _411  and  _412
REMARK  171  A    between atoms: _411  and  _414
REMARK  172  A    between atoms: _414  and  _415
REMARK  173  A    between atoms: _421  and  _423
REMARK  174  A    between atoms: _423  and  _424
REMARK  175  A    between atoms: _423  and  _426
REMARK  176  A    between atoms: _426  and  _427
REMARK  177  A    between atoms: _432  and  _433
REMARK  178  A    between atoms: _435  and  _437
REMARK  179  A    between atoms: _437  and  _438
REMARK  180  A    between atoms: _437  and  _440
REMARK  181  A    between atoms: _440  and  _441
REMARK  182  A    between atoms: _447  and  _449
REMARK  183  A    between atoms: _449  and  _450
REMARK  184  A    between atoms: _453  and  _455
REMARK  185  A    between atoms: _455  and  _456
REMARK  186  A    between atoms: _458  and  _460
REMARK  187  A    between atoms: _460  and  _461
REMARK  188  A    between atoms: _460  and  _463
REMARK  189  A    between atoms: _463  and  _464
REMARK  190  A    between atoms: _467  and  _469
REMARK  191  A    between atoms: _469  and  _470
REMARK  192  A    between atoms: _469  and  _472
REMARK  193  A    between atoms: _472  and  _473
REMARK  194  A    between atoms: _473  and  _474
REMARK  195  A    between atoms: _479  and  _481
REMARK  196  A    between atoms: _481  and  _482
REMARK  197  A    between atoms: _481  and  _484
REMARK  198  A    between atoms: _484  and  _485
REMARK  199  A    between atoms: _491  and  _493
REMARK  200  A    between atoms: _493  and  _494
REMARK  201  A    between atoms: _493  and  _496
REMARK  202  A    between atoms: _496  and  _497
REMARK  203  A    between atoms: _500  and  _502
REMARK  204  A    between atoms: _502  and  _503
REMARK  205  A    between atoms: _502  and  _505
REMARK  206  A    between atoms: _505  and  _506
REMARK  207  A    between atoms: _512  and  _514
REMARK  208  A    between atoms: _514  and  _515
REMARK  209  A    between atoms: _514  and  _517
REMARK  210  A    between atoms: _517  and  _518
REMARK  211  A    between atoms: _520  and  _522
REMARK  212  A    between atoms: _522  and  _523
REMARK  213  A    between atoms: _522  and  _525
REMARK  214  A    between atoms: _525  and  _526
REMARK  215  A    between atoms: _529  and  _531
REMARK  216  A    between atoms: _531  and  _532
REMARK  217  A    between atoms: _531  and  _534
REMARK  218  A    between atoms: _534  and  _535
REMARK  219  A    between atoms: _540  and  _542
REMARK  220  A    between atoms: _542  and  _543
REMARK  221  A    between atoms: _542  and  _545
REMARK  222  A    between atoms: _545  and  _546
REMARK  223  A    between atoms: _548  and  _550
REMARK  224  A    between atoms: _550  and  _551
REMARK  225  A    between atoms: _550  and  _553
REMARK  226  A    between atoms: _553  and  _554
REMARK  227  A    between atoms: _554  and  _555
REMARK  228  A    between atoms: _560  and  _562
REMARK  229  A    between atoms: _562  and  _563
REMARK  230  A    between atoms: _562  and  _565
REMARK  231  A    between atoms: _568  and  _570
REMARK  232  A    between atoms: _570  and  _571
REMARK  233  A    between atoms: _570  and  _573
REMARK  234  A    between atoms: _573  and  _574
REMARK  235  A    between atoms: _580  and  _582
REMARK  236  A    between atoms: _582  and  _583
REMARK  237  A    between atoms: _586  and  _588
REMARK  238  A    between atoms: _588  and  _589
REMARK  239  A    between atoms: _588  and  _591
REMARK  240  A    between atoms: _591  and  _592
REMARK  241  A    between atoms: _595  and  _597
REMARK  242  A    between atoms: _597  and  _598
REMARK  243  A    between atoms: _597  and  _600
REMARK  244  A    between atoms: _600  and  _601
REMARK  245  A    between atoms: _601  and  _602
REMARK  246  A    between atoms: _607  and  _609
REMARK  247  A    between atoms: _609  and  _610
REMARK  248  A    between atoms: _609  and  _612
REMARK  249  A    between atoms: _612  and  _613
REMARK  250  A    between atoms: _613  and  _614
REMARK  251  A    between atoms: _614  and  _615
REMARK  252  A    between atoms: _615  and  _616
REMARK  253  A    between atoms: _620  and  _622
REMARK  254  A    between atoms: _622  and  _623
REMARK  255  A    between atoms: _622  and  _625
REMARK  256  A    between atoms: _625  and  _626
REMARK  257  A    between atoms: _626  and  _627
REMARK  258  A    between atoms: _627  and  _628
REMARK  259  A    between atoms: _628  and  _629
REMARK  260  A    between atoms: _633  and  _635
REMARK  261  A    between atoms: _635  and  _636
REMARK  262  A    between atoms: _635  and  _638
REMARK  263  A    between atoms: _638  and  _639
REMARK  264  A    between atoms: _643  and  _644
REMARK  265  A    between atoms: _649  and  _651
REMARK  266  A    between atoms: _651  and  _652
REMARK  267  A    between atoms: _651  and  _654
REMARK  268  A    between atoms: _654  and  _655
REMARK  269  A    between atoms: _658  and  _660
REMARK  270  A    between atoms: _660  and  _661
REMARK  271  A    between atoms: _660  and  _663
REMARK  272  A    between atoms: _663  and  _664
REMARK  273  A    between atoms: _666  and  _668
REMARK  274  A    between atoms: _668  and  _669
REMARK  275  A    between atoms: _668  and  _671
REMARK  276  A    between atoms: _671  and  _672
REMARK                            x       y       z     vdW  Elec       q    Type
REMARK                         _______ _______ _______ _____ _____    ______ ____
ROOT
ATOM      1  O   HOH     1      14.365 -21.728  24.528  0.00  0.00    +0.000 OA
ENDROOT
TORSDOF 0
