REMARK  Name = ../refined-set-2016/4f6w/4f6w_pocket.pdb
REMARK  309 active torsions:
REMARK  status: ('A' for Active; 'I' for Inactive)
REMARK    1  A    between atoms: _1  and  _3
REMARK    2  A    between atoms: _3  and  _4
REMARK    3  A    between atoms: _3  and  _6
REMARK    4  A    between atoms: _8  and  _10
REMARK    5  A    between atoms: _10  and  _11
REMARK    6  A    between atoms: _10  and  _13
REMARK    7  A    between atoms: _13  and  _14
REMARK    8  A    between atoms: _14  and  _15
REMARK    9  A    between atoms: _15  and  _16
REMARK   10  A    between atoms: _16  and  _17
REMARK   11  A    between atoms: _21  and  _23
REMARK   12  A    between atoms: _23  and  _24
REMARK   13  A    between atoms: _23  and  _26
REMARK   14  A    between atoms: _29  and  _31
REMARK   15  A    between atoms: _31  and  _32
REMARK   16  A    between atoms: _34  and  _36
REMARK   17  A    between atoms: _36  and  _37
REMARK   18  A    between atoms: _36  and  _39
REMARK   19  A    between atoms: _39  and  _40
REMARK   20  A    between atoms: _40  and  _41
REMARK   21  A    between atoms: _41  and  _42
REMARK   22  A    between atoms: _51  and  _53
REMARK   23  A    between atoms: _53  and  _54
REMARK   24  A    between atoms: _56  and  _58
REMARK   25  A    between atoms: _58  and  _59
REMARK   26  A    between atoms: _58  and  _61
REMARK   27  A    between atoms: _61  and  _62
REMARK   28  A    between atoms: _67  and  _68
REMARK   29  A    between atoms: _70  and  _72
REMARK   30  A    between atoms: _72  and  _73
REMARK   31  A    between atoms: _75  and  _77
REMARK   32  A    between atoms: _77  and  _78
REMARK   33  A    between atoms: _77  and  _80
REMARK   34  A    between atoms: _80  and  _81
REMARK   35  A    between atoms: _86  and  _88
REMARK   36  A    between atoms: _88  and  _89
REMARK   37  A    between atoms: _88  and  _91
REMARK   38  A    between atoms: _94  and  _96
REMARK   39  A    between atoms: _96  and  _97
REMARK   40  A    between atoms: _96  and  _99
REMARK   41  A    between atoms: _99  and  _100
REMARK   42  A    between atoms: _105  and  _106
REMARK   43  A    between atoms: _108  and  _110
REMARK   44  A    between atoms: _110  and  _111
REMARK   45  A    between atoms: _110  and  _113
REMARK   46  A    between atoms: _113  and  _114
REMARK   47  A    between atoms: _114  and  _115
REMARK   48  A    between atoms: _115  and  _116
REMARK   49  A    between atoms: _116  and  _117
REMARK   50  A    between atoms: _121  and  _123
REMARK   51  A    between atoms: _123  and  _124
REMARK   52  A    between atoms: _127  and  _129
REMARK   53  A    between atoms: _129  and  _130
REMARK   54  A    between atoms: _129  and  _132
REMARK   55  A    between atoms: _132  and  _133
REMARK   56  A    between atoms: _138  and  _139
REMARK   57  A    between atoms: _141  and  _143
REMARK   58  A    between atoms: _143  and  _144
REMARK   59  A    between atoms: _147  and  _149
REMARK   60  A    between atoms: _149  and  _150
REMARK   61  A    between atoms: _149  and  _152
REMARK   62  A    between atoms: _152  and  _153
REMARK   63  A    between atoms: _156  and  _158
REMARK   64  A    between atoms: _158  and  _159
REMARK   65  A    between atoms: _158  and  _161
REMARK   66  A    between atoms: _161  and  _162
REMARK   67  A    between atoms: _162  and  _163
REMARK   68  A    between atoms: _163  and  _164
REMARK   69  A    between atoms: _164  and  _165
REMARK   70  A    between atoms: _169  and  _171
REMARK   71  A    between atoms: _171  and  _172
REMARK   72  A    between atoms: _171  and  _174
REMARK   73  A    between atoms: _174  and  _175
REMARK   74  A    between atoms: _175  and  _176
REMARK   75  A    between atoms: _181  and  _183
REMARK   76  A    between atoms: _183  and  _184
REMARK   77  A    between atoms: _183  and  _186
REMARK   78  A    between atoms: _186  and  _187
REMARK   79  A    between atoms: _190  and  _192
REMARK   80  A    between atoms: _192  and  _193
REMARK   81  A    between atoms: _192  and  _195
REMARK   82  A    between atoms: _195  and  _196
REMARK   83  A    between atoms: _198  and  _200
REMARK   84  A    between atoms: _200  and  _201
REMARK   85  A    between atoms: _200  and  _203
REMARK   86  A    between atoms: _203  and  _204
REMARK   87  A    between atoms: _204  and  _205
REMARK   88  A    between atoms: _207  and  _209
REMARK   89  A    between atoms: _209  and  _210
REMARK   90  A    between atoms: _209  and  _212
REMARK   91  A    between atoms: _212  and  _213
REMARK   92  A    between atoms: _215  and  _217
REMARK   93  A    between atoms: _217  and  _218
REMARK   94  A    between atoms: _221  and  _223
REMARK   95  A    between atoms: _223  and  _224
REMARK   96  A    between atoms: _223  and  _226
REMARK   97  A    between atoms: _228  and  _230
REMARK   98  A    between atoms: _230  and  _231
REMARK   99  A    between atoms: _230  and  _233
REMARK  100  A    between atoms: _233  and  _234
REMARK  101  A    between atoms: _234  and  _235
REMARK  102  A    between atoms: _235  and  _236
REMARK  103  A    between atoms: _245  and  _247
REMARK  104  A    between atoms: _247  and  _248
REMARK  105  A    between atoms: _247  and  _250
REMARK  106  A    between atoms: _250  and  _251
REMARK  107  A    between atoms: _251  and  _252
REMARK  108  A    between atoms: _255  and  _257
REMARK  109  A    between atoms: _257  and  _258
REMARK  110  A    between atoms: _257  and  _260
REMARK  111  A    between atoms: _260  and  _261
REMARK  112  A    between atoms: _264  and  _266
REMARK  113  A    between atoms: _266  and  _267
REMARK  114  A    between atoms: _270  and  _272
REMARK  115  A    between atoms: _272  and  _273
REMARK  116  A    between atoms: _272  and  _275
REMARK  117  A    between atoms: _275  and  _276
REMARK  118  A    between atoms: _279  and  _281
REMARK  119  A    between atoms: _281  and  _282
REMARK  120  A    between atoms: _281  and  _284
REMARK  121  A    between atoms: _284  and  _285
REMARK  122  A    between atoms: _288  and  _290
REMARK  123  A    between atoms: _290  and  _291
REMARK  124  A    between atoms: _290  and  _293
REMARK  125  A    between atoms: _293  and  _294
REMARK  126  A    between atoms: _297  and  _299
REMARK  127  A    between atoms: _299  and  _300
REMARK  128  A    between atoms: _299  and  _302
REMARK  129  A    between atoms: _302  and  _303
REMARK  130  A    between atoms: _308  and  _310
REMARK  131  A    between atoms: _310  and  _311
REMARK  132  A    between atoms: _310  and  _313
REMARK  133  A    between atoms: _316  and  _318
REMARK  134  A    between atoms: _318  and  _319
REMARK  135  A    between atoms: _318  and  _321
REMARK  136  A    between atoms: _321  and  _322
REMARK  137  A    between atoms: _325  and  _327
REMARK  138  A    between atoms: _327  and  _328
REMARK  139  A    between atoms: _327  and  _330
REMARK  140  A    between atoms: _330  and  _331
REMARK  141  A    between atoms: _333  and  _335
REMARK  142  A    between atoms: _335  and  _336
REMARK  143  A    between atoms: _335  and  _338
REMARK  144  A    between atoms: _338  and  _339
REMARK  145  A    between atoms: _342  and  _344
REMARK  146  A    between atoms: _344  and  _345
REMARK  147  A    between atoms: _344  and  _347
REMARK  148  A    between atoms: _347  and  _348
REMARK  149  A    between atoms: _351  and  _353
REMARK  150  A    between atoms: _353  and  _354
REMARK  151  A    between atoms: _353  and  _356
REMARK  152  A    between atoms: _356  and  _357
REMARK  153  A    between atoms: _360  and  _362
REMARK  154  A    between atoms: _362  and  _363
REMARK  155  A    between atoms: _362  and  _365
REMARK  156  A    between atoms: _365  and  _366
REMARK  157  A    between atoms: _372  and  _374
REMARK  158  A    between atoms: _374  and  _375
REMARK  159  A    between atoms: _374  and  _377
REMARK  160  A    between atoms: _377  and  _378
REMARK  161  A    between atoms: _381  and  _383
REMARK  162  A    between atoms: _383  and  _384
REMARK  163  A    between atoms: _383  and  _386
REMARK  164  A    between atoms: _386  and  _387
REMARK  165  A    between atoms: _392  and  _393
REMARK  166  A    between atoms: _395  and  _397
REMARK  167  A    between atoms: _397  and  _398
REMARK  168  A    between atoms: _401  and  _403
REMARK  169  A    between atoms: _403  and  _404
REMARK  170  A    between atoms: _403  and  _406
REMARK  171  A    between atoms: _406  and  _407
REMARK  172  A    between atoms: _407  and  _408
REMARK  173  A    between atoms: _411  and  _413
REMARK  174  A    between atoms: _413  and  _414
REMARK  175  A    between atoms: _413  and  _416
REMARK  176  A    between atoms: _416  and  _417
REMARK  177  A    between atoms: _422  and  _424
REMARK  178  A    between atoms: _424  and  _425
REMARK  179  A    between atoms: _424  and  _427
REMARK  180  A    between atoms: _427  and  _428
REMARK  181  A    between atoms: _431  and  _433
REMARK  182  A    between atoms: _433  and  _434
REMARK  183  A    between atoms: _433  and  _436
REMARK  184  A    between atoms: _436  and  _437
REMARK  185  A    between atoms: _440  and  _442
REMARK  186  A    between atoms: _442  and  _443
REMARK  187  A    between atoms: _442  and  _445
REMARK  188  A    between atoms: _445  and  _446
REMARK  189  A    between atoms: _456  and  _458
REMARK  190  A    between atoms: _458  and  _459
REMARK  191  A    between atoms: _458  and  _461
REMARK  192  A    between atoms: _461  and  _462
REMARK  193  A    between atoms: _467  and  _469
REMARK  194  A    between atoms: _469  and  _470
REMARK  195  A    between atoms: _469  and  _472
REMARK  196  A    between atoms: _472  and  _473
REMARK  197  A    between atoms: _476  and  _478
REMARK  198  A    between atoms: _478  and  _479
REMARK  199  A    between atoms: _478  and  _481
REMARK  200  A    between atoms: _481  and  _482
REMARK  201  A    between atoms: _482  and  _483
REMARK  202  A    between atoms: _483  and  _484
REMARK  203  A    between atoms: _484  and  _485
REMARK  204  A    between atoms: _489  and  _491
REMARK  205  A    between atoms: _491  and  _492
REMARK  206  A    between atoms: _494  and  _496
REMARK  207  A    between atoms: _496  and  _497
REMARK  208  A    between atoms: _496  and  _499
REMARK  209  A    between atoms: _499  and  _500
REMARK  210  A    between atoms: _503  and  _505
REMARK  211  A    between atoms: _505  and  _506
REMARK  212  A    between atoms: _505  and  _508
REMARK  213  A    between atoms: _508  and  _509
REMARK  214  A    between atoms: _514  and  _515
REMARK  215  A    between atoms: _517  and  _519
REMARK  216  A    between atoms: _519  and  _520
REMARK  217  A    between atoms: _519  and  _522
REMARK  218  A    between atoms: _522  and  _523
REMARK  219  A    between atoms: _526  and  _528
REMARK  220  A    between atoms: _528  and  _529
REMARK  221  A    between atoms: _528  and  _531
REMARK  222  A    between atoms: _534  and  _536
REMARK  223  A    between atoms: _536  and  _537
REMARK  224  A    between atoms: _536  and  _539
REMARK  225  A    between atoms: _539  and  _540
REMARK  226  A    between atoms: _543  and  _545
REMARK  227  A    between atoms: _545  and  _546
REMARK  228  A    between atoms: _545  and  _548
REMARK  229  A    between atoms: _548  and  _549
REMARK  230  A    between atoms: _554  and  _556
REMARK  231  A    between atoms: _556  and  _557
REMARK  232  A    between atoms: _556  and  _559
REMARK  233  A    between atoms: _559  and  _560
REMARK  234  A    between atoms: _560  and  _561
REMARK  235  A    between atoms: _561  and  _562
REMARK  236  A    between atoms: _571  and  _573
REMARK  237  A    between atoms: _573  and  _574
REMARK  238  A    between atoms: _573  and  _576
REMARK  239  A    between atoms: _576  and  _577
REMARK  240  A    between atoms: _580  and  _582
REMARK  241  A    between atoms: _582  and  _583
REMARK  242  A    between atoms: _582  and  _585
REMARK  243  A    between atoms: _585  and  _586
REMARK  244  A    between atoms: _589  and  _591
REMARK  245  A    between atoms: _591  and  _592
REMARK  246  A    between atoms: _591  and  _594
REMARK  247  A    between atoms: _594  and  _595
REMARK  248  A    between atoms: _595  and  _596
REMARK  249  A    between atoms: _596  and  _597
REMARK  250  A    between atoms: _597  and  _598
REMARK  251  A    between atoms: _603  and  _604
REMARK  252  A    between atoms: _609  and  _611
REMARK  253  A    between atoms: _611  and  _612
REMARK  254  A    between atoms: _615  and  _617
REMARK  255  A    between atoms: _617  and  _618
REMARK  256  A    between atoms: _617  and  _620
REMARK  257  A    between atoms: _620  and  _621
REMARK  258  A    between atoms: _626  and  _628
REMARK  259  A    between atoms: _628  and  _629
REMARK  260  A    between atoms: _628  and  _631
REMARK  261  A    between atoms: _631  and  _632
REMARK  262  A    between atoms: _635  and  _637
REMARK  263  A    between atoms: _637  and  _638
REMARK  264  A    between atoms: _637  and  _640
REMARK  265  A    between atoms: _640  and  _641
REMARK  266  A    between atoms: _644  and  _646
REMARK  267  A    between atoms: _646  and  _647
REMARK  268  A    between atoms: _646  and  _649
REMARK  269  A    between atoms: _652  and  _654
REMARK  270  A    between atoms: _654  and  _655
REMARK  271  A    between atoms: _654  and  _657
REMARK  272  A    between atoms: _657  and  _658
REMARK  273  A    between atoms: _658  and  _659
REMARK  274  A    between atoms: _659  and  _660
REMARK  275  A    between atoms: _660  and  _661
REMARK  276  A    between atoms: _665  and  _667
REMARK  277  A    between atoms: _667  and  _668
REMARK  278  A    between atoms: _667  and  _670
REMARK  279  A    between atoms: _670  and  _671
REMARK  280  A    between atoms: _674  and  _676
REMARK  281  A    between atoms: _676  and  _677
REMARK  282  A    between atoms: _680  and  _682
REMARK  283  A    between atoms: _682  and  _683
REMARK  284  A    between atoms: _682  and  _685
REMARK  285  A    between atoms: _685  and  _686
REMARK  286  A    between atoms: _689  and  _691
REMARK  287  A    between atoms: _691  and  _692
REMARK  288  A    between atoms: _691  and  _694
REMARK  289  A    between atoms: _694  and  _695
REMARK  290  A    between atoms: _695  and  _696
REMARK  291  A    between atoms: _698  and  _700
REMARK  292  A    between atoms: _700  and  _701
REMARK  293  A    between atoms: _703  and  _705
REMARK  294  A    between atoms: _705  and  _706
REMARK  295  A    between atoms: _705  and  _708
REMARK  296  A    between atoms: _708  and  _709
REMARK  297  A    between atoms: _715  and  _717
REMARK  298  A    between atoms: _717  and  _718
REMARK  299  A    between atoms: _721  and  _723
REMARK  300  A    between atoms: _723  and  _724
REMARK  301  A    between atoms: _723  and  _726
REMARK  302  A    between atoms: _726  and  _727
REMARK  303  A    between atoms: _727  and  _728
REMARK  304  A    between atoms: _728  and  _729
REMARK  305  A    between atoms: _738  and  _740
REMARK  306  A    between atoms: _740  and  _741
REMARK  307  A    between atoms: _740  and  _743
REMARK  308  A    between atoms: _743  and  _744
REMARK  309  A    between atoms: _744  and  _745
REMARK                            x       y       z     vdW  Elec       q    Type
REMARK                         _______ _______ _______ _____ _____    ______ ____
ROOT
ATOM      1  C   VAL A   3      37.794  60.582 132.725  0.00  0.00    +0.241 C 
ATOM      2  N   GLY A   4      36.691  60.721 133.450  0.00  0.00    -0.295 N 
ATOM      3  H   GLY A   4      36.352  61.681 133.664  0.00  0.00    +0.150 HD
ATOM      4  O   VAL A   3      38.329  59.485 132.539  0.00  0.00    -0.273 OA
ENDROOT
BRANCH   2   5
ATOM      5  CA  GLY A   4      35.933  59.580 133.960  0.00  0.00    +0.176 C 
BRANCH   5   6
ATOM      6  C   GLY A   4      34.514  59.969 134.361  0.00  0.00    +0.243 C 
ATOM      7  O   GLY A   4      34.269  61.093 134.804  0.00  0.00    -0.273 OA
ATOM      8  N   ARG A   5      33.581  59.038 134.162  0.00  0.00    -0.297 N 
ATOM      9  H   ARG A   5      33.833  58.216 133.577  0.00  0.00    +0.150 HD
BRANCH   8  10
ATOM     10  CA  ARG A   5      32.223  59.095 134.713  0.00  0.00    +0.149 C 
BRANCH  10  11
ATOM     11  C   ARG A   5      31.944  57.731 135.326  0.00  0.00    +0.241 C 
ATOM     12  N   GLY A   6      31.340  57.718 136.508  0.00  0.00    -0.296 N 
ATOM     13  H   GLY A   6      31.154  58.621 136.989  0.00  0.00    +0.150 HD
ATOM     14  O   ARG A   5      32.285  56.706 134.738  0.00  0.00    -0.273 OA
BRANCH  12  15
ATOM     15  CA  GLY A   6      30.928  56.473 137.154  0.00  0.00    +0.163 C 
BRANCH  15  16
ATOM     16  C   GLY A   6      29.851  56.707 138.189  0.00  0.00    +0.229 C 
ATOM     17  O   GLY A   6      29.227  57.782 138.222  0.00  0.00    -0.286 OA
ENDBRANCH  15  16
ENDBRANCH  12  15
ENDBRANCH  10  11
BRANCH  10  18
ATOM     18  CB  ARG A   5      31.197  59.407 133.619  0.00  0.00    +0.033 C 
BRANCH  18  19
ATOM     19  CG  ARG A   5      29.699  59.320 134.033  0.00  0.00    +0.045 C 
BRANCH  19  20
ATOM     20  CD  ARG A   5      29.220  60.568 134.755  0.00  0.00    +0.174 C 
BRANCH  20  21
ATOM     21  NE  ARG A   5      27.759  60.606 134.956  0.00  0.00    -0.265 N 
ATOM     22  CZ  ARG A   5      27.094  60.397 136.105  0.00  0.00    +0.342 C 
ATOM     23  NH2 ARG A   5      27.715  60.099 137.249  0.00  0.00    -0.292 N 
ATOM     24 HH21 ARG A   5      27.162  59.945 138.116  0.00  0.00    +0.255 HD
ATOM     25 HH22 ARG A   5      28.752  60.021 137.273  0.00  0.00    +0.255 HD
ATOM     26  NH1 ARG A   5      25.759  60.486 136.107  0.00  0.00    -0.292 N 
ATOM     27 HH11 ARG A   5      25.229  60.327 136.987  0.00  0.00    +0.255 HD
ATOM     28 HH12 ARG A   5      25.252  60.714 135.228  0.00  0.00    +0.255 HD
ATOM     29  HE  ARG A   5      27.181  60.817 134.118  0.00  0.00    +0.259 HD
ENDBRANCH  20  21
ENDBRANCH  19  20
ENDBRANCH  18  19
ENDBRANCH  10  18
ENDBRANCH   8  10
ENDBRANCH   5   6
ENDBRANCH   2   5
BRANCH   1  30
ATOM     30  CA  VAL A   3      38.398  61.858 132.103  0.00  0.00    +0.149 C 
BRANCH  30  32
ATOM     31  C   LYS A   2      37.094  63.788 131.286  0.00  0.00    +0.241 C 
ATOM     32  N   VAL A   3      37.586  63.074 132.301  0.00  0.00    -0.297 N 
ATOM     33  H   VAL A   3      37.389  63.388 133.273  0.00  0.00    +0.150 HD
ATOM     34  O   LYS A   2      37.307  63.530 130.104  0.00  0.00    -0.273 OA
BRANCH  31  35
ATOM     35  CA  LYS A   2      36.278  65.011 131.648  0.00  0.00    +0.149 C 
BRANCH  35  38
ATOM     36  C   CYS A   1      37.944  66.705 131.067  0.00  0.00    +0.239 C 
ATOM     37  O   CYS A   1      38.732  66.316 131.933  0.00  0.00    -0.274 OA
ATOM     38  N   LYS A   2      36.773  66.119 130.842  0.00  0.00    -0.297 N 
ATOM     39  H   LYS A   2      36.185  66.466 130.057  0.00  0.00    +0.150 HD
BRANCH  36  40
ATOM     40  CA  CYS A   1      38.282  67.896 130.170  0.00  0.00    +0.156 C 
BRANCH  40  41
ATOM     41  CB  CYS A   1      39.234  68.846 130.909  0.00  0.00    +0.095 C 
ATOM     42  SG  CYS A   1      39.898  70.202 129.914  0.00  0.00    -0.080 S 
ENDBRANCH  40  41
BRANCH  40  43
ATOM     43  N   CYS A   1      37.069  68.611 129.746  0.00  0.00    -0.237 NA
ATOM     44  H   CYS A   1      36.498  69.087 130.473  0.00  0.00    +0.142 HD
ENDBRANCH  40  43
ENDBRANCH  36  40
ENDBRANCH  35  38
BRANCH  35  45
ATOM     45  CB  LYS A   2      34.787  64.767 131.380  0.00  0.00    +0.029 C 
BRANCH  45  46
ATOM     46  CG  LYS A   2      34.151  63.782 132.332  0.00  0.00    +0.000 C 
BRANCH  46  47
ATOM     47  CD  LYS A   2      32.663  63.640 132.080  0.00  0.00    -0.024 C 
BRANCH  47  48
ATOM     48  CE  LYS A   2      31.863  64.704 132.755  0.00  0.00    -0.086 C 
BRANCH  48  49
ATOM     49  NZ  LYS A   2      30.434  64.319 132.784  0.00  0.00    +0.380 N 
ATOM     50  HZ1 LYS A   2      30.327  63.426 133.306  0.00  0.00    -0.089 HD
ATOM     51  HZ2 LYS A   2      29.885  65.066 133.256  0.00  0.00    -0.089 HD
ATOM     52  HZ3 LYS A   2      30.090  64.196 131.810  0.00  0.00    -0.089 HD
ENDBRANCH  48  49
ENDBRANCH  47  48
ENDBRANCH  46  47
ENDBRANCH  45  46
ENDBRANCH  35  45
ENDBRANCH  31  35
ENDBRANCH  30  32
BRANCH  30  53
ATOM     53  CB  VAL A   3      39.863  62.074 132.600  0.00  0.00    +0.027 C 
ATOM     54  CG2 VAL A   3      39.911  62.444 134.076  0.00  0.00    +0.002 C 
ATOM     55  CG1 VAL A   3      40.541  63.145 131.760  0.00  0.00    +0.002 C 
ENDBRANCH  30  53
ENDBRANCH   1  30
TORSDOF 23
REMARK  Name = ../refined-set-2016/4f6w/4f6w_pocket.pdb
REMARK  309 active torsions:
REMARK  status: ('A' for Active; 'I' for Inactive)
REMARK    1  A    between atoms: _1  and  _3
REMARK    2  A    between atoms: _3  and  _4
REMARK    3  A    between atoms: _3  and  _6
REMARK    4  A    between atoms: _8  and  _10
REMARK    5  A    between atoms: _10  and  _11
REMARK    6  A    between atoms: _10  and  _13
REMARK    7  A    between atoms: _13  and  _14
REMARK    8  A    between atoms: _14  and  _15
REMARK    9  A    between atoms: _15  and  _16
REMARK   10  A    between atoms: _16  and  _17
REMARK   11  A    between atoms: _21  and  _23
REMARK   12  A    between atoms: _23  and  _24
REMARK   13  A    between atoms: _23  and  _26
REMARK   14  A    between atoms: _29  and  _31
REMARK   15  A    between atoms: _31  and  _32
REMARK   16  A    between atoms: _34  and  _36
REMARK   17  A    between atoms: _36  and  _37
REMARK   18  A    between atoms: _36  and  _39
REMARK   19  A    between atoms: _39  and  _40
REMARK   20  A    between atoms: _40  and  _41
REMARK   21  A    between atoms: _41  and  _42
REMARK   22  A    between atoms: _51  and  _53
REMARK   23  A    between atoms: _53  and  _54
REMARK   24  A    between atoms: _56  and  _58
REMARK   25  A    between atoms: _58  and  _59
REMARK   26  A    between atoms: _58  and  _61
REMARK   27  A    between atoms: _61  and  _62
REMARK   28  A    between atoms: _67  and  _68
REMARK   29  A    between atoms: _70  and  _72
REMARK   30  A    between atoms: _72  and  _73
REMARK   31  A    between atoms: _75  and  _77
REMARK   32  A    between atoms: _77  and  _78
REMARK   33  A    between atoms: _77  and  _80
REMARK   34  A    between atoms: _80  and  _81
REMARK   35  A    between atoms: _86  and  _88
REMARK   36  A    between atoms: _88  and  _89
REMARK   37  A    between atoms: _88  and  _91
REMARK   38  A    between atoms: _94  and  _96
REMARK   39  A    between atoms: _96  and  _97
REMARK   40  A    between atoms: _96  and  _99
REMARK   41  A    between atoms: _99  and  _100
REMARK   42  A    between atoms: _105  and  _106
REMARK   43  A    between atoms: _108  and  _110
REMARK   44  A    between atoms: _110  and  _111
REMARK   45  A    between atoms: _110  and  _113
REMARK   46  A    between atoms: _113  and  _114
REMARK   47  A    between atoms: _114  and  _115
REMARK   48  A    between atoms: _115  and  _116
REMARK   49  A    between atoms: _116  and  _117
REMARK   50  A    between atoms: _121  and  _123
REMARK   51  A    between atoms: _123  and  _124
REMARK   52  A    between atoms: _127  and  _129
REMARK   53  A    between atoms: _129  and  _130
REMARK   54  A    between atoms: _129  and  _132
REMARK   55  A    between atoms: _132  and  _133
REMARK   56  A    between atoms: _138  and  _139
REMARK   57  A    between atoms: _141  and  _143
REMARK   58  A    between atoms: _143  and  _144
REMARK   59  A    between atoms: _147  and  _149
REMARK   60  A    between atoms: _149  and  _150
REMARK   61  A    between atoms: _149  and  _152
REMARK   62  A    between atoms: _152  and  _153
REMARK   63  A    between atoms: _156  and  _158
REMARK   64  A    between atoms: _158  and  _159
REMARK   65  A    between atoms: _158  and  _161
REMARK   66  A    between atoms: _161  and  _162
REMARK   67  A    between atoms: _162  and  _163
REMARK   68  A    between atoms: _163  and  _164
REMARK   69  A    between atoms: _164  and  _165
REMARK   70  A    between atoms: _169  and  _171
REMARK   71  A    between atoms: _171  and  _172
REMARK   72  A    between atoms: _171  and  _174
REMARK   73  A    between atoms: _174  and  _175
REMARK   74  A    between atoms: _175  and  _176
REMARK   75  A    between atoms: _181  and  _183
REMARK   76  A    between atoms: _183  and  _184
REMARK   77  A    between atoms: _183  and  _186
REMARK   78  A    between atoms: _186  and  _187
REMARK   79  A    between atoms: _190  and  _192
REMARK   80  A    between atoms: _192  and  _193
REMARK   81  A    between atoms: _192  and  _195
REMARK   82  A    between atoms: _195  and  _196
REMARK   83  A    between atoms: _198  and  _200
REMARK   84  A    between atoms: _200  and  _201
REMARK   85  A    between atoms: _200  and  _203
REMARK   86  A    between atoms: _203  and  _204
REMARK   87  A    between atoms: _204  and  _205
REMARK   88  A    between atoms: _207  and  _209
REMARK   89  A    between atoms: _209  and  _210
REMARK   90  A    between atoms: _209  and  _212
REMARK   91  A    between atoms: _212  and  _213
REMARK   92  A    between atoms: _215  and  _217
REMARK   93  A    between atoms: _217  and  _218
REMARK   94  A    between atoms: _221  and  _223
REMARK   95  A    between atoms: _223  and  _224
REMARK   96  A    between atoms: _223  and  _226
REMARK   97  A    between atoms: _228  and  _230
REMARK   98  A    between atoms: _230  and  _231
REMARK   99  A    between atoms: _230  and  _233
REMARK  100  A    between atoms: _233  and  _234
REMARK  101  A    between atoms: _234  and  _235
REMARK  102  A    between atoms: _235  and  _236
REMARK  103  A    between atoms: _245  and  _247
REMARK  104  A    between atoms: _247  and  _248
REMARK  105  A    between atoms: _247  and  _250
REMARK  106  A    between atoms: _250  and  _251
REMARK  107  A    between atoms: _251  and  _252
REMARK  108  A    between atoms: _255  and  _257
REMARK  109  A    between atoms: _257  and  _258
REMARK  110  A    between atoms: _257  and  _260
REMARK  111  A    between atoms: _260  and  _261
REMARK  112  A    between atoms: _264  and  _266
REMARK  113  A    between atoms: _266  and  _267
REMARK  114  A    between atoms: _270  and  _272
REMARK  115  A    between atoms: _272  and  _273
REMARK  116  A    between atoms: _272  and  _275
REMARK  117  A    between atoms: _275  and  _276
REMARK  118  A    between atoms: _279  and  _281
REMARK  119  A    between atoms: _281  and  _282
REMARK  120  A    between atoms: _281  and  _284
REMARK  121  A    between atoms: _284  and  _285
REMARK  122  A    between atoms: _288  and  _290
REMARK  123  A    between atoms: _290  and  _291
REMARK  124  A    between atoms: _290  and  _293
REMARK  125  A    between atoms: _293  and  _294
REMARK  126  A    between atoms: _297  and  _299
REMARK  127  A    between atoms: _299  and  _300
REMARK  128  A    between atoms: _299  and  _302
REMARK  129  A    between atoms: _302  and  _303
REMARK  130  A    between atoms: _308  and  _310
REMARK  131  A    between atoms: _310  and  _311
REMARK  132  A    between atoms: _310  and  _313
REMARK  133  A    between atoms: _316  and  _318
REMARK  134  A    between atoms: _318  and  _319
REMARK  135  A    between atoms: _318  and  _321
REMARK  136  A    between atoms: _321  and  _322
REMARK  137  A    between atoms: _325  and  _327
REMARK  138  A    between atoms: _327  and  _328
REMARK  139  A    between atoms: _327  and  _330
REMARK  140  A    between atoms: _330  and  _331
REMARK  141  A    between atoms: _333  and  _335
REMARK  142  A    between atoms: _335  and  _336
REMARK  143  A    between atoms: _335  and  _338
REMARK  144  A    between atoms: _338  and  _339
REMARK  145  A    between atoms: _342  and  _344
REMARK  146  A    between atoms: _344  and  _345
REMARK  147  A    between atoms: _344  and  _347
REMARK  148  A    between atoms: _347  and  _348
REMARK  149  A    between atoms: _351  and  _353
REMARK  150  A    between atoms: _353  and  _354
REMARK  151  A    between atoms: _353  and  _356
REMARK  152  A    between atoms: _356  and  _357
REMARK  153  A    between atoms: _360  and  _362
REMARK  154  A    between atoms: _362  and  _363
REMARK  155  A    between atoms: _362  and  _365
REMARK  156  A    between atoms: _365  and  _366
REMARK  157  A    between atoms: _372  and  _374
REMARK  158  A    between atoms: _374  and  _375
REMARK  159  A    between atoms: _374  and  _377
REMARK  160  A    between atoms: _377  and  _378
REMARK  161  A    between atoms: _381  and  _383
REMARK  162  A    between atoms: _383  and  _384
REMARK  163  A    between atoms: _383  and  _386
REMARK  164  A    between atoms: _386  and  _387
REMARK  165  A    between atoms: _392  and  _393
REMARK  166  A    between atoms: _395  and  _397
REMARK  167  A    between atoms: _397  and  _398
REMARK  168  A    between atoms: _401  and  _403
REMARK  169  A    between atoms: _403  and  _404
REMARK  170  A    between atoms: _403  and  _406
REMARK  171  A    between atoms: _406  and  _407
REMARK  172  A    between atoms: _407  and  _408
REMARK  173  A    between atoms: _411  and  _413
REMARK  174  A    between atoms: _413  and  _414
REMARK  175  A    between atoms: _413  and  _416
REMARK  176  A    between atoms: _416  and  _417
REMARK  177  A    between atoms: _422  and  _424
REMARK  178  A    between atoms: _424  and  _425
REMARK  179  A    between atoms: _424  and  _427
REMARK  180  A    between atoms: _427  and  _428
REMARK  181  A    between atoms: _431  and  _433
REMARK  182  A    between atoms: _433  and  _434
REMARK  183  A    between atoms: _433  and  _436
REMARK  184  A    between atoms: _436  and  _437
REMARK  185  A    between atoms: _440  and  _442
REMARK  186  A    between atoms: _442  and  _443
REMARK  187  A    between atoms: _442  and  _445
REMARK  188  A    between atoms: _445  and  _446
REMARK  189  A    between atoms: _456  and  _458
REMARK  190  A    between atoms: _458  and  _459
REMARK  191  A    between atoms: _458  and  _461
REMARK  192  A    between atoms: _461  and  _462
REMARK  193  A    between atoms: _467  and  _469
REMARK  194  A    between atoms: _469  and  _470
REMARK  195  A    between atoms: _469  and  _472
REMARK  196  A    between atoms: _472  and  _473
REMARK  197  A    between atoms: _476  and  _478
REMARK  198  A    between atoms: _478  and  _479
REMARK  199  A    between atoms: _478  and  _481
REMARK  200  A    between atoms: _481  and  _482
REMARK  201  A    between atoms: _482  and  _483
REMARK  202  A    between atoms: _483  and  _484
REMARK  203  A    between atoms: _484  and  _485
REMARK  204  A    between atoms: _489  and  _491
REMARK  205  A    between atoms: _491  and  _492
REMARK  206  A    between atoms: _494  and  _496
REMARK  207  A    between atoms: _496  and  _497
REMARK  208  A    between atoms: _496  and  _499
REMARK  209  A    between atoms: _499  and  _500
REMARK  210  A    between atoms: _503  and  _505
REMARK  211  A    between atoms: _505  and  _506
REMARK  212  A    between atoms: _505  and  _508
REMARK  213  A    between atoms: _508  and  _509
REMARK  214  A    between atoms: _514  and  _515
REMARK  215  A    between atoms: _517  and  _519
REMARK  216  A    between atoms: _519  and  _520
REMARK  217  A    between atoms: _519  and  _522
REMARK  218  A    between atoms: _522  and  _523
REMARK  219  A    between atoms: _526  and  _528
REMARK  220  A    between atoms: _528  and  _529
REMARK  221  A    between atoms: _528  and  _531
REMARK  222  A    between atoms: _534  and  _536
REMARK  223  A    between atoms: _536  and  _537
REMARK  224  A    between atoms: _536  and  _539
REMARK  225  A    between atoms: _539  and  _540
REMARK  226  A    between atoms: _543  and  _545
REMARK  227  A    between atoms: _545  and  _546
REMARK  228  A    between atoms: _545  and  _548
REMARK  229  A    between atoms: _548  and  _549
REMARK  230  A    between atoms: _554  and  _556
REMARK  231  A    between atoms: _556  and  _557
REMARK  232  A    between atoms: _556  and  _559
REMARK  233  A    between atoms: _559  and  _560
REMARK  234  A    between atoms: _560  and  _561
REMARK  235  A    between atoms: _561  and  _562
REMARK  236  A    between atoms: _571  and  _573
REMARK  237  A    between atoms: _573  and  _574
REMARK  238  A    between atoms: _573  and  _576
REMARK  239  A    between atoms: _576  and  _577
REMARK  240  A    between atoms: _580  and  _582
REMARK  241  A    between atoms: _582  and  _583
REMARK  242  A    between atoms: _582  and  _585
REMARK  243  A    between atoms: _585  and  _586
REMARK  244  A    between atoms: _589  and  _591
REMARK  245  A    between atoms: _591  and  _592
REMARK  246  A    between atoms: _591  and  _594
REMARK  247  A    between atoms: _594  and  _595
REMARK  248  A    between atoms: _595  and  _596
REMARK  249  A    between atoms: _596  and  _597
REMARK  250  A    between atoms: _597  and  _598
REMARK  251  A    between atoms: _603  and  _604
REMARK  252  A    between atoms: _609  and  _611
REMARK  253  A    between atoms: _611  and  _612
REMARK  254  A    between atoms: _615  and  _617
REMARK  255  A    between atoms: _617  and  _618
REMARK  256  A    between atoms: _617  and  _620
REMARK  257  A    between atoms: _620  and  _621
REMARK  258  A    between atoms: _626  and  _628
REMARK  259  A    between atoms: _628  and  _629
REMARK  260  A    between atoms: _628  and  _631
REMARK  261  A    between atoms: _631  and  _632
REMARK  262  A    between atoms: _635  and  _637
REMARK  263  A    between atoms: _637  and  _638
REMARK  264  A    between atoms: _637  and  _640
REMARK  265  A    between atoms: _640  and  _641
REMARK  266  A    between atoms: _644  and  _646
REMARK  267  A    between atoms: _646  and  _647
REMARK  268  A    between atoms: _646  and  _649
REMARK  269  A    between atoms: _652  and  _654
REMARK  270  A    between atoms: _654  and  _655
REMARK  271  A    between atoms: _654  and  _657
REMARK  272  A    between atoms: _657  and  _658
REMARK  273  A    between atoms: _658  and  _659
REMARK  274  A    between atoms: _659  and  _660
REMARK  275  A    between atoms: _660  and  _661
REMARK  276  A    between atoms: _665  and  _667
REMARK  277  A    between atoms: _667  and  _668
REMARK  278  A    between atoms: _667  and  _670
REMARK  279  A    between atoms: _670  and  _671
REMARK  280  A    between atoms: _674  and  _676
REMARK  281  A    between atoms: _676  and  _677
REMARK  282  A    between atoms: _680  and  _682
REMARK  283  A    between atoms: _682  and  _683
REMARK  284  A    between atoms: _682  and  _685
REMARK  285  A    between atoms: _685  and  _686
REMARK  286  A    between atoms: _689  and  _691
REMARK  287  A    between atoms: _691  and  _692
REMARK  288  A    between atoms: _691  and  _694
REMARK  289  A    between atoms: _694  and  _695
REMARK  290  A    between atoms: _695  and  _696
REMARK  291  A    between atoms: _698  and  _700
REMARK  292  A    between atoms: _700  and  _701
REMARK  293  A    between atoms: _703  and  _705
REMARK  294  A    between atoms: _705  and  _706
REMARK  295  A    between atoms: _705  and  _708
REMARK  296  A    between atoms: _708  and  _709
REMARK  297  A    between atoms: _715  and  _717
REMARK  298  A    between atoms: _717  and  _718
REMARK  299  A    between atoms: _721  and  _723
REMARK  300  A    between atoms: _723  and  _724
REMARK  301  A    between atoms: _723  and  _726
REMARK  302  A    between atoms: _726  and  _727
REMARK  303  A    between atoms: _727  and  _728
REMARK  304  A    between atoms: _728  and  _729
REMARK  305  A    between atoms: _738  and  _740
REMARK  306  A    between atoms: _740  and  _741
REMARK  307  A    between atoms: _740  and  _743
REMARK  308  A    between atoms: _743  and  _744
REMARK  309  A    between atoms: _744  and  _745
REMARK                            x       y       z     vdW  Elec       q    Type
REMARK                         _______ _______ _______ _____ _____    ______ ____
ROOT
ATOM      1  CA  VAL A   4      36.194  63.233 137.244  0.00  0.00    +0.149 C 
ENDROOT
BRANCH   1   2
ATOM      2  C   VAL A   4      36.764  63.990 136.026  0.00  0.00    +0.241 C 
ATOM      3  N   TYR A   5      37.322  65.178 136.285  0.00  0.00    -0.297 N 
ATOM      4  H   TYR A   5      37.355  65.502 137.273  0.00  0.00    +0.150 HD
ATOM      5  O   VAL A   4      36.652  63.522 134.886  0.00  0.00    -0.273 OA
BRANCH   3   6
ATOM      6  CA  TYR A   5      37.888  66.045 135.252  0.00  0.00    +0.153 C 
BRANCH   6   7
ATOM      7  C   TYR A   5      39.384  66.239 135.468  0.00  0.00    +0.241 C 
ATOM      8  O   TYR A   5      39.857  66.204 136.607  0.00  0.00    -0.273 OA
ATOM      9  N   LYS A   6      40.112  66.444 134.371  0.00  0.00    -0.297 N 
ATOM     10  H   LYS A   6      39.663  66.297 133.445  0.00  0.00    +0.150 HD
BRANCH   9  11
ATOM     11  CA  LYS A   6      41.512  66.866 134.405  0.00  0.00    +0.149 C 
BRANCH  11  12
ATOM     12  C   LYS A   6      41.519  68.391 134.415  0.00  0.00    +0.241 C 
ATOM     13  N   ALA A   7      41.880  68.985 135.550  0.00  0.00    -0.298 N 
ATOM     14  H   ALA A   7      42.256  68.397 136.321  0.00  0.00    +0.150 HD
ATOM     15  O   LYS A   6      41.184  69.008 133.419  0.00  0.00    -0.273 OA
BRANCH  13  16
ATOM     16  CA  ALA A   7      41.772  70.431 135.762  0.00  0.00    +0.137 C 
ATOM     17  CB  ALA A   7      40.934  70.705 137.006  0.00  0.00    +0.030 C 
BRANCH  16  18
ATOM     18  C   ALA A   7      43.144  71.112 135.890  0.00  0.00    +0.227 C 
ATOM     19  O   ALA A   7      44.094  70.524 136.420  0.00  0.00    -0.286 OA
ENDBRANCH  16  18
ENDBRANCH  13  16
ENDBRANCH  11  12
BRANCH  11  20
ATOM     20  CB  LYS A   6      42.256  66.332 133.183  0.00  0.00    +0.029 C 
BRANCH  20  21
ATOM     21  CG  LYS A   6      43.699  66.802 133.022  0.00  0.00    +0.000 C 
BRANCH  21  22
ATOM     22  CD  LYS A   6      44.358  66.079 131.857  0.00  0.00    -0.024 C 
BRANCH  22  23
ATOM     23  CE  LYS A   6      45.785  66.547 131.625  0.00  0.00    -0.086 C 
BRANCH  23  24
ATOM     24  NZ  LYS A   6      46.465  65.743 130.549  0.00  0.00    +0.380 N 
ATOM     25  HZ1 LYS A   6      46.489  64.742 130.829  0.00  0.00    -0.089 HD
ATOM     26  HZ2 LYS A   6      47.436  66.091 130.419  0.00  0.00    -0.089 HD
ATOM     27  HZ3 LYS A   6      45.938  65.842 129.658  0.00  0.00    -0.089 HD
ENDBRANCH  23  24
ENDBRANCH  22  23
ENDBRANCH  21  22
ENDBRANCH  20  21
ENDBRANCH  11  20
ENDBRANCH   9  11
ENDBRANCH   6   7
BRANCH   6  28
ATOM     28  CB  TYR A   5      37.230  67.426 135.285  0.00  0.00    +0.055 C 
BRANCH  28  29
ATOM     29  CG  TYR A   5      35.728  67.442 135.076  0.00  0.00    -0.020 A 
ATOM     30  CD2 TYR A   5      34.860  67.072 136.102  0.00  0.00    -0.001 A 
ATOM     31  CE2 TYR A   5      33.492  67.096 135.930  0.00  0.00    +0.036 A 
ATOM     32  CZ  TYR A   5      32.963  67.505 134.718  0.00  0.00    +0.134 A 
ATOM     33  CE1 TYR A   5      33.798  67.897 133.687  0.00  0.00    +0.036 A 
ATOM     34  CD1 TYR A   5      35.177  67.872 133.877  0.00  0.00    -0.001 A 
BRANCH  32  35
ATOM     35  OH  TYR A   5      31.601  67.521 134.559  0.00  0.00    -0.506 OA
ATOM     36  HH  TYR A   5      31.169  67.211 135.394  0.00  0.00    +0.292 HD
ENDBRANCH  32  35
ENDBRANCH  28  29
ENDBRANCH   6  28
ENDBRANCH   3   6
ENDBRANCH   1   2
BRANCH   1  39
ATOM     37  C   HIS A   3      33.835  63.075 137.817  0.00  0.00    +0.241 C 
ATOM     38  O   HIS A   3      34.013  63.661 138.879  0.00  0.00    -0.273 OA
ATOM     39  N   VAL A   4      34.829  62.786 136.979  0.00  0.00    -0.297 N 
ATOM     40  H   VAL A   4      34.630  62.233 136.121  0.00  0.00    +0.150 HD
BRANCH  37  41
ATOM     41  CA  HIS A   3      32.426  62.659 137.418  0.00  0.00    +0.155 C 
BRANCH  41  43
ATOM     42  C   GLY A   2      31.065  61.042 138.687  0.00  0.00    +0.243 C 
ATOM     43  N   HIS A   3      31.717  62.204 138.622  0.00  0.00    -0.297 N 
ATOM     44  H   HIS A   3      31.724  62.816 139.463  0.00  0.00    +0.150 HD
ATOM     45  O   GLY A   2      31.099  60.188 137.794  0.00  0.00    -0.273 OA
BRANCH  42  46
ATOM     46  CA  GLY A   2      30.245  60.800 139.942  0.00  0.00    +0.176 C 
BRANCH  46  49
ATOM     47  C   TYR A   1      30.856  59.311 141.792  0.00  0.00    +0.239 C 
ATOM     48  O   TYR A   1      30.844  60.216 142.648  0.00  0.00    -0.274 OA
ATOM     49  N   GLY A   2      30.575  59.505 140.504  0.00  0.00    -0.296 N 
ATOM     50  H   GLY A   2      30.593  58.683 139.867  0.00  0.00    +0.150 HD
BRANCH  47  51
ATOM     51  CA  TYR A   1      31.237  57.872 142.170  0.00  0.00    +0.149 C 
BRANCH  51  52
ATOM     52  N   TYR A   1      30.556  56.864 141.336  0.00  0.00    -0.238 NA
ATOM     53  H   TYR A   1      31.141  56.201 140.788  0.00  0.00    +0.142 HD
ENDBRANCH  51  52
BRANCH  51  54
ATOM     54  CB  TYR A   1      32.775  57.707 142.084  0.00  0.00    +0.053 C 
BRANCH  54  55
ATOM     55  CG  TYR A   1      33.377  57.837 140.685  0.00  0.00    -0.020 A 
ATOM     56  CD2 TYR A   1      33.652  59.089 140.132  0.00  0.00    -0.001 A 
ATOM     57  CE2 TYR A   1      34.193  59.218 138.850  0.00  0.00    +0.036 A 
ATOM     58  CZ  TYR A   1      34.476  58.082 138.106  0.00  0.00    +0.134 A 
ATOM     59  CE1 TYR A   1      34.217  56.815 138.634  0.00  0.00    +0.036 A 
ATOM     60  CD1 TYR A   1      33.671  56.701 139.916  0.00  0.00    -0.001 A 
BRANCH  58  61
ATOM     61  OH  TYR A   1      35.011  58.222 136.841  0.00  0.00    -0.506 OA
ATOM     62  HH  TYR A   1      35.891  57.769 136.804  0.00  0.00    +0.292 HD
ENDBRANCH  58  61
ENDBRANCH  54  55
ENDBRANCH  51  54
ENDBRANCH  47  51
ENDBRANCH  46  49
ENDBRANCH  42  46
ENDBRANCH  41  43
BRANCH  41  63
ATOM     63  CB  HIS A   3      31.733  63.880 136.815  0.00  0.00    +0.076 C 
BRANCH  63  64
ATOM     64  CG  HIS A   3      30.233  63.791 136.745  0.00  0.00    +0.082 A 
ATOM     65  CD2 HIS A   3      29.282  63.966 137.695  0.00  0.00    +0.115 A 
ATOM     66  NE2 HIS A   3      28.061  63.839 137.079  0.00  0.00    -0.221 NA
ATOM     67  CE1 HIS A   3      28.253  63.610 135.792  0.00  0.00    +0.199 A 
ATOM     68  ND1 HIS A   3      29.555  63.586 135.561  0.00  0.00    -0.227 NA
ENDBRANCH  63  64
ENDBRANCH  41  63
ENDBRANCH  37  41
ENDBRANCH   1  39
BRANCH   1  69
ATOM     69  CB  VAL A   4      37.109  62.068 137.725  0.00  0.00    +0.027 C 
ATOM     70  CG2 VAL A   4      38.471  62.610 138.150  0.00  0.00    +0.002 C 
ATOM     71  CG1 VAL A   4      37.258  61.013 136.661  0.00  0.00    +0.002 C 
ENDBRANCH   1  69
TORSDOF 28
REMARK  Name = ../refined-set-2016/4f6w/4f6w_pocket.pdb
REMARK  309 active torsions:
REMARK  status: ('A' for Active; 'I' for Inactive)
REMARK    1  A    between atoms: _1  and  _3
REMARK    2  A    between atoms: _3  and  _4
REMARK    3  A    between atoms: _3  and  _6
REMARK    4  A    between atoms: _8  and  _10
REMARK    5  A    between atoms: _10  and  _11
REMARK    6  A    between atoms: _10  and  _13
REMARK    7  A    between atoms: _13  and  _14
REMARK    8  A    between atoms: _14  and  _15
REMARK    9  A    between atoms: _15  and  _16
REMARK   10  A    between atoms: _16  and  _17
REMARK   11  A    between atoms: _21  and  _23
REMARK   12  A    between atoms: _23  and  _24
REMARK   13  A    between atoms: _23  and  _26
REMARK   14  A    between atoms: _29  and  _31
REMARK   15  A    between atoms: _31  and  _32
REMARK   16  A    between atoms: _34  and  _36
REMARK   17  A    between atoms: _36  and  _37
REMARK   18  A    between atoms: _36  and  _39
REMARK   19  A    between atoms: _39  and  _40
REMARK   20  A    between atoms: _40  and  _41
REMARK   21  A    between atoms: _41  and  _42
REMARK   22  A    between atoms: _51  and  _53
REMARK   23  A    between atoms: _53  and  _54
REMARK   24  A    between atoms: _56  and  _58
REMARK   25  A    between atoms: _58  and  _59
REMARK   26  A    between atoms: _58  and  _61
REMARK   27  A    between atoms: _61  and  _62
REMARK   28  A    between atoms: _67  and  _68
REMARK   29  A    between atoms: _70  and  _72
REMARK   30  A    between atoms: _72  and  _73
REMARK   31  A    between atoms: _75  and  _77
REMARK   32  A    between atoms: _77  and  _78
REMARK   33  A    between atoms: _77  and  _80
REMARK   34  A    between atoms: _80  and  _81
REMARK   35  A    between atoms: _86  and  _88
REMARK   36  A    between atoms: _88  and  _89
REMARK   37  A    between atoms: _88  and  _91
REMARK   38  A    between atoms: _94  and  _96
REMARK   39  A    between atoms: _96  and  _97
REMARK   40  A    between atoms: _96  and  _99
REMARK   41  A    between atoms: _99  and  _100
REMARK   42  A    between atoms: _105  and  _106
REMARK   43  A    between atoms: _108  and  _110
REMARK   44  A    between atoms: _110  and  _111
REMARK   45  A    between atoms: _110  and  _113
REMARK   46  A    between atoms: _113  and  _114
REMARK   47  A    between atoms: _114  and  _115
REMARK   48  A    between atoms: _115  and  _116
REMARK   49  A    between atoms: _116  and  _117
REMARK   50  A    between atoms: _121  and  _123
REMARK   51  A    between atoms: _123  and  _124
REMARK   52  A    between atoms: _127  and  _129
REMARK   53  A    between atoms: _129  and  _130
REMARK   54  A    between atoms: _129  and  _132
REMARK   55  A    between atoms: _132  and  _133
REMARK   56  A    between atoms: _138  and  _139
REMARK   57  A    between atoms: _141  and  _143
REMARK   58  A    between atoms: _143  and  _144
REMARK   59  A    between atoms: _147  and  _149
REMARK   60  A    between atoms: _149  and  _150
REMARK   61  A    between atoms: _149  and  _152
REMARK   62  A    between atoms: _152  and  _153
REMARK   63  A    between atoms: _156  and  _158
REMARK   64  A    between atoms: _158  and  _159
REMARK   65  A    between atoms: _158  and  _161
REMARK   66  A    between atoms: _161  and  _162
REMARK   67  A    between atoms: _162  and  _163
REMARK   68  A    between atoms: _163  and  _164
REMARK   69  A    between atoms: _164  and  _165
REMARK   70  A    between atoms: _169  and  _171
REMARK   71  A    between atoms: _171  and  _172
REMARK   72  A    between atoms: _171  and  _174
REMARK   73  A    between atoms: _174  and  _175
REMARK   74  A    between atoms: _175  and  _176
REMARK   75  A    between atoms: _181  and  _183
REMARK   76  A    between atoms: _183  and  _184
REMARK   77  A    between atoms: _183  and  _186
REMARK   78  A    between atoms: _186  and  _187
REMARK   79  A    between atoms: _190  and  _192
REMARK   80  A    between atoms: _192  and  _193
REMARK   81  A    between atoms: _192  and  _195
REMARK   82  A    between atoms: _195  and  _196
REMARK   83  A    between atoms: _198  and  _200
REMARK   84  A    between atoms: _200  and  _201
REMARK   85  A    between atoms: _200  and  _203
REMARK   86  A    between atoms: _203  and  _204
REMARK   87  A    between atoms: _204  and  _205
REMARK   88  A    between atoms: _207  and  _209
REMARK   89  A    between atoms: _209  and  _210
REMARK   90  A    between atoms: _209  and  _212
REMARK   91  A    between atoms: _212  and  _213
REMARK   92  A    between atoms: _215  and  _217
REMARK   93  A    between atoms: _217  and  _218
REMARK   94  A    between atoms: _221  and  _223
REMARK   95  A    between atoms: _223  and  _224
REMARK   96  A    between atoms: _223  and  _226
REMARK   97  A    between atoms: _228  and  _230
REMARK   98  A    between atoms: _230  and  _231
REMARK   99  A    between atoms: _230  and  _233
REMARK  100  A    between atoms: _233  and  _234
REMARK  101  A    between atoms: _234  and  _235
REMARK  102  A    between atoms: _235  and  _236
REMARK  103  A    between atoms: _245  and  _247
REMARK  104  A    between atoms: _247  and  _248
REMARK  105  A    between atoms: _247  and  _250
REMARK  106  A    between atoms: _250  and  _251
REMARK  107  A    between atoms: _251  and  _252
REMARK  108  A    between atoms: _255  and  _257
REMARK  109  A    between atoms: _257  and  _258
REMARK  110  A    between atoms: _257  and  _260
REMARK  111  A    between atoms: _260  and  _261
REMARK  112  A    between atoms: _264  and  _266
REMARK  113  A    between atoms: _266  and  _267
REMARK  114  A    between atoms: _270  and  _272
REMARK  115  A    between atoms: _272  and  _273
REMARK  116  A    between atoms: _272  and  _275
REMARK  117  A    between atoms: _275  and  _276
REMARK  118  A    between atoms: _279  and  _281
REMARK  119  A    between atoms: _281  and  _282
REMARK  120  A    between atoms: _281  and  _284
REMARK  121  A    between atoms: _284  and  _285
REMARK  122  A    between atoms: _288  and  _290
REMARK  123  A    between atoms: _290  and  _291
REMARK  124  A    between atoms: _290  and  _293
REMARK  125  A    between atoms: _293  and  _294
REMARK  126  A    between atoms: _297  and  _299
REMARK  127  A    between atoms: _299  and  _300
REMARK  128  A    between atoms: _299  and  _302
REMARK  129  A    between atoms: _302  and  _303
REMARK  130  A    between atoms: _308  and  _310
REMARK  131  A    between atoms: _310  and  _311
REMARK  132  A    between atoms: _310  and  _313
REMARK  133  A    between atoms: _316  and  _318
REMARK  134  A    between atoms: _318  and  _319
REMARK  135  A    between atoms: _318  and  _321
REMARK  136  A    between atoms: _321  and  _322
REMARK  137  A    between atoms: _325  and  _327
REMARK  138  A    between atoms: _327  and  _328
REMARK  139  A    between atoms: _327  and  _330
REMARK  140  A    between atoms: _330  and  _331
REMARK  141  A    between atoms: _333  and  _335
REMARK  142  A    between atoms: _335  and  _336
REMARK  143  A    between atoms: _335  and  _338
REMARK  144  A    between atoms: _338  and  _339
REMARK  145  A    between atoms: _342  and  _344
REMARK  146  A    between atoms: _344  and  _345
REMARK  147  A    between atoms: _344  and  _347
REMARK  148  A    between atoms: _347  and  _348
REMARK  149  A    between atoms: _351  and  _353
REMARK  150  A    between atoms: _353  and  _354
REMARK  151  A    between atoms: _353  and  _356
REMARK  152  A    between atoms: _356  and  _357
REMARK  153  A    between atoms: _360  and  _362
REMARK  154  A    between atoms: _362  and  _363
REMARK  155  A    between atoms: _362  and  _365
REMARK  156  A    between atoms: _365  and  _366
REMARK  157  A    between atoms: _372  and  _374
REMARK  158  A    between atoms: _374  and  _375
REMARK  159  A    between atoms: _374  and  _377
REMARK  160  A    between atoms: _377  and  _378
REMARK  161  A    between atoms: _381  and  _383
REMARK  162  A    between atoms: _383  and  _384
REMARK  163  A    between atoms: _383  and  _386
REMARK  164  A    between atoms: _386  and  _387
REMARK  165  A    between atoms: _392  and  _393
REMARK  166  A    between atoms: _395  and  _397
REMARK  167  A    between atoms: _397  and  _398
REMARK  168  A    between atoms: _401  and  _403
REMARK  169  A    between atoms: _403  and  _404
REMARK  170  A    between atoms: _403  and  _406
REMARK  171  A    between atoms: _406  and  _407
REMARK  172  A    between atoms: _407  and  _408
REMARK  173  A    between atoms: _411  and  _413
REMARK  174  A    between atoms: _413  and  _414
REMARK  175  A    between atoms: _413  and  _416
REMARK  176  A    between atoms: _416  and  _417
REMARK  177  A    between atoms: _422  and  _424
REMARK  178  A    between atoms: _424  and  _425
REMARK  179  A    between atoms: _424  and  _427
REMARK  180  A    between atoms: _427  and  _428
REMARK  181  A    between atoms: _431  and  _433
REMARK  182  A    between atoms: _433  and  _434
REMARK  183  A    between atoms: _433  and  _436
REMARK  184  A    between atoms: _436  and  _437
REMARK  185  A    between atoms: _440  and  _442
REMARK  186  A    between atoms: _442  and  _443
REMARK  187  A    between atoms: _442  and  _445
REMARK  188  A    between atoms: _445  and  _446
REMARK  189  A    between atoms: _456  and  _458
REMARK  190  A    between atoms: _458  and  _459
REMARK  191  A    between atoms: _458  and  _461
REMARK  192  A    between atoms: _461  and  _462
REMARK  193  A    between atoms: _467  and  _469
REMARK  194  A    between atoms: _469  and  _470
REMARK  195  A    between atoms: _469  and  _472
REMARK  196  A    between atoms: _472  and  _473
REMARK  197  A    between atoms: _476  and  _478
REMARK  198  A    between atoms: _478  and  _479
REMARK  199  A    between atoms: _478  and  _481
REMARK  200  A    between atoms: _481  and  _482
REMARK  201  A    between atoms: _482  and  _483
REMARK  202  A    between atoms: _483  and  _484
REMARK  203  A    between atoms: _484  and  _485
REMARK  204  A    between atoms: _489  and  _491
REMARK  205  A    between atoms: _491  and  _492
REMARK  206  A    between atoms: _494  and  _496
REMARK  207  A    between atoms: _496  and  _497
REMARK  208  A    between atoms: _496  and  _499
REMARK  209  A    between atoms: _499  and  _500
REMARK  210  A    between atoms: _503  and  _505
REMARK  211  A    between atoms: _505  and  _506
REMARK  212  A    between atoms: _505  and  _508
REMARK  213  A    between atoms: _508  and  _509
REMARK  214  A    between atoms: _514  and  _515
REMARK  215  A    between atoms: _517  and  _519
REMARK  216  A    between atoms: _519  and  _520
REMARK  217  A    between atoms: _519  and  _522
REMARK  218  A    between atoms: _522  and  _523
REMARK  219  A    between atoms: _526  and  _528
REMARK  220  A    between atoms: _528  and  _529
REMARK  221  A    between atoms: _528  and  _531
REMARK  222  A    between atoms: _534  and  _536
REMARK  223  A    between atoms: _536  and  _537
REMARK  224  A    between atoms: _536  and  _539
REMARK  225  A    between atoms: _539  and  _540
REMARK  226  A    between atoms: _543  and  _545
REMARK  227  A    between atoms: _545  and  _546
REMARK  228  A    between atoms: _545  and  _548
REMARK  229  A    between atoms: _548  and  _549
REMARK  230  A    between atoms: _554  and  _556
REMARK  231  A    between atoms: _556  and  _557
REMARK  232  A    between atoms: _556  and  _559
REMARK  233  A    between atoms: _559  and  _560
REMARK  234  A    between atoms: _560  and  _561
REMARK  235  A    between atoms: _561  and  _562
REMARK  236  A    between atoms: _571  and  _573
REMARK  237  A    between atoms: _573  and  _574
REMARK  238  A    between atoms: _573  and  _576
REMARK  239  A    between atoms: _576  and  _577
REMARK  240  A    between atoms: _580  and  _582
REMARK  241  A    between atoms: _582  and  _583
REMARK  242  A    between atoms: _582  and  _585
REMARK  243  A    between atoms: _585  and  _586
REMARK  244  A    between atoms: _589  and  _591
REMARK  245  A    between atoms: _591  and  _592
REMARK  246  A    between atoms: _591  and  _594
REMARK  247  A    between atoms: _594  and  _595
REMARK  248  A    between atoms: _595  and  _596
REMARK  249  A    between atoms: _596  and  _597
REMARK  250  A    between atoms: _597  and  _598
REMARK  251  A    between atoms: _603  and  _604
REMARK  252  A    between atoms: _609  and  _611
REMARK  253  A    between atoms: _611  and  _612
REMARK  254  A    between atoms: _615  and  _617
REMARK  255  A    between atoms: _617  and  _618
REMARK  256  A    between atoms: _617  and  _620
REMARK  257  A    between atoms: _620  and  _621
REMARK  258  A    between atoms: _626  and  _628
REMARK  259  A    between atoms: _628  and  _629
REMARK  260  A    between atoms: _628  and  _631
REMARK  261  A    between atoms: _631  and  _632
REMARK  262  A    between atoms: _635  and  _637
REMARK  263  A    between atoms: _637  and  _638
REMARK  264  A    between atoms: _637  and  _640
REMARK  265  A    between atoms: _640  and  _641
REMARK  266  A    between atoms: _644  and  _646
REMARK  267  A    between atoms: _646  and  _647
REMARK  268  A    between atoms: _646  and  _649
REMARK  269  A    between atoms: _652  and  _654
REMARK  270  A    between atoms: _654  and  _655
REMARK  271  A    between atoms: _654  and  _657
REMARK  272  A    between atoms: _657  and  _658
REMARK  273  A    between atoms: _658  and  _659
REMARK  274  A    between atoms: _659  and  _660
REMARK  275  A    between atoms: _660  and  _661
REMARK  276  A    between atoms: _665  and  _667
REMARK  277  A    between atoms: _667  and  _668
REMARK  278  A    between atoms: _667  and  _670
REMARK  279  A    between atoms: _670  and  _671
REMARK  280  A    between atoms: _674  and  _676
REMARK  281  A    between atoms: _676  and  _677
REMARK  282  A    between atoms: _680  and  _682
REMARK  283  A    between atoms: _682  and  _683
REMARK  284  A    between atoms: _682  and  _685
REMARK  285  A    between atoms: _685  and  _686
REMARK  286  A    between atoms: _689  and  _691
REMARK  287  A    between atoms: _691  and  _692
REMARK  288  A    between atoms: _691  and  _694
REMARK  289  A    between atoms: _694  and  _695
REMARK  290  A    between atoms: _695  and  _696
REMARK  291  A    between atoms: _698  and  _700
REMARK  292  A    between atoms: _700  and  _701
REMARK  293  A    between atoms: _703  and  _705
REMARK  294  A    between atoms: _705  and  _706
REMARK  295  A    between atoms: _705  and  _708
REMARK  296  A    between atoms: _708  and  _709
REMARK  297  A    between atoms: _715  and  _717
REMARK  298  A    between atoms: _717  and  _718
REMARK  299  A    between atoms: _721  and  _723
REMARK  300  A    between atoms: _723  and  _724
REMARK  301  A    between atoms: _723  and  _726
REMARK  302  A    between atoms: _726  and  _727
REMARK  303  A    between atoms: _727  and  _728
REMARK  304  A    between atoms: _728  and  _729
REMARK  305  A    between atoms: _738  and  _740
REMARK  306  A    between atoms: _740  and  _741
REMARK  307  A    between atoms: _740  and  _743
REMARK  308  A    between atoms: _743  and  _744
REMARK  309  A    between atoms: _744  and  _745
REMARK                            x       y       z     vdW  Elec       q    Type
REMARK                         _______ _______ _______ _____ _____    ______ ____
ROOT
ATOM      1  CA  LYS A   4      35.816  64.969 141.248  0.00  0.00    +0.149 C 
ENDROOT
BRANCH   1   3
ATOM      2  C   LEU A   3      37.396  66.328 139.948  0.00  0.00    +0.241 C 
ATOM      3  N   LYS A   4      36.950  65.872 141.114  0.00  0.00    -0.297 N 
ATOM      4  H   LYS A   4      37.439  66.178 141.980  0.00  0.00    +0.150 HD
ATOM      5  O   LEU A   3      36.848  66.078 138.883  0.00  0.00    -0.273 OA
BRANCH   2   6
ATOM      6  CA  LEU A   3      38.674  67.184 140.001  0.00  0.00    +0.149 C 
BRANCH   6   9
ATOM      7  C   ALA A   2      40.868  66.129 140.011  0.00  0.00    +0.241 C 
ATOM      8  O   ALA A   2      41.002  66.274 141.220  0.00  0.00    -0.273 OA
ATOM      9  N   LEU A   3      39.772  66.496 139.352  0.00  0.00    -0.297 N 
ATOM     10  H   LEU A   3      39.701  66.282 138.337  0.00  0.00    +0.150 HD
BRANCH   7  11
ATOM     11  CA  ALA A   2      41.969  65.486 139.201  0.00  0.00    +0.149 C 
ATOM     12  CB  ALA A   2      42.174  64.055 139.654  0.00  0.00    +0.031 C 
BRANCH  11  14
ATOM     13  C   TYR A   1      43.536  67.271 138.590  0.00  0.00    +0.239 C 
ATOM     14  N   ALA A   2      43.173  66.285 139.410  0.00  0.00    -0.297 N 
ATOM     15  H   ALA A   2      43.773  66.076 140.234  0.00  0.00    +0.150 HD
ATOM     16  O   TYR A   1      42.970  67.504 137.519  0.00  0.00    -0.274 OA
BRANCH  13  17
ATOM     17  CA  TYR A   1      44.721  68.122 139.043  0.00  0.00    +0.149 C 
BRANCH  17  18
ATOM     18  N   TYR A   1      45.452  68.640 137.875  0.00  0.00    -0.238 NA
ATOM     19  H   TYR A   1      44.909  69.095 137.113  0.00  0.00    +0.142 HD
ENDBRANCH  17  18
BRANCH  17  20
ATOM     20  CB  TYR A   1      44.206  69.267 139.915  0.00  0.00    +0.053 C 
BRANCH  20  21
ATOM     21  CG  TYR A   1      45.263  70.016 140.691  0.00  0.00    -0.020 A 
ATOM     22  CD2 TYR A   1      45.640  69.598 141.967  0.00  0.00    -0.001 A 
ATOM     23  CE2 TYR A   1      46.607  70.281 142.701  0.00  0.00    +0.036 A 
ATOM     24  CZ  TYR A   1      47.211  71.410 142.164  0.00  0.00    +0.134 A 
ATOM     25  CE1 TYR A   1      46.860  71.856 140.894  0.00  0.00    +0.036 A 
ATOM     26  CD1 TYR A   1      45.879  71.155 140.164  0.00  0.00    -0.001 A 
BRANCH  24  27
ATOM     27  OH  TYR A   1      48.160  72.067 142.906  0.00  0.00    -0.506 OA
ATOM     28  HH  TYR A   1      47.868  73.000 143.061  0.00  0.00    +0.292 HD
ENDBRANCH  24  27
ENDBRANCH  20  21
ENDBRANCH  17  20
ENDBRANCH  13  17
ENDBRANCH  11  14
ENDBRANCH   7  11
ENDBRANCH   6   9
BRANCH   6  29
ATOM     29  CB  LEU A   3      38.509  68.540 139.329  0.00  0.00    +0.029 C 
BRANCH  29  30
ATOM     30  CG  LEU A   3      37.465  69.517 139.850  0.00  0.00    +0.002 C 
ATOM     31  CD2 LEU A   3      37.677  69.864 141.332  0.00  0.00    +0.000 C 
ATOM     32  CD1 LEU A   3      37.493  70.768 138.947  0.00  0.00    +0.000 C 
ENDBRANCH  29  30
ENDBRANCH   6  29
ENDBRANCH   2   6
ENDBRANCH   1   3
BRANCH   1  33
ATOM     33  C   LYS A   4      34.576  65.738 141.697  0.00  0.00    +0.241 C 
ATOM     34  O   LYS A   4      34.612  66.385 142.739  0.00  0.00    -0.273 OA
ATOM     35  N   GLN A   5      33.505  65.704 140.903  0.00  0.00    -0.297 N 
ATOM     36  H   GLN A   5      33.613  65.372 139.923  0.00  0.00    +0.150 HD
BRANCH  35  37
ATOM     37  CA  GLN A   5      32.179  66.121 141.372  0.00  0.00    +0.149 C 
BRANCH  37  38
ATOM     38  C   GLN A   5      31.517  64.864 141.897  0.00  0.00    +0.241 C 
ATOM     39  N   ILE A   6      31.204  64.866 143.188  0.00  0.00    -0.298 N 
ATOM     40  H   ILE A   6      31.364  65.732 143.741  0.00  0.00    +0.150 HD
ATOM     41  O   GLN A   5      31.311  63.910 141.146  0.00  0.00    -0.273 OA
BRANCH  39  42
ATOM     42  CA  ILE A   6      30.645  63.699 143.856  0.00  0.00    +0.137 C 
BRANCH  42  43
ATOM     43  C   ILE A   6      29.214  63.505 143.360  0.00  0.00    +0.227 C 
ATOM     44  O   ILE A   6      28.441  64.469 143.280  0.00  0.00    -0.286 OA
ENDBRANCH  42  43
BRANCH  42  45
ATOM     45  CB  ILE A   6      30.665  63.867 145.390  0.00  0.00    +0.026 C 
ATOM     46  CG2 ILE A   6      29.955  62.710 146.064  0.00  0.00    +0.002 C 
BRANCH  45  47
ATOM     47  CG1 ILE A   6      32.115  63.953 145.892  0.00  0.00    +0.002 C 
ATOM     48  CD1 ILE A   6      32.258  64.211 147.389  0.00  0.00    +0.000 C 
ENDBRANCH  45  47
ENDBRANCH  42  45
ENDBRANCH  39  42
ENDBRANCH  37  38
BRANCH  37  49
ATOM     49  CB  GLN A   5      31.322  66.741 140.264  0.00  0.00    +0.039 C 
BRANCH  49  50
ATOM     50  CG  GLN A   5      30.055  67.418 140.798  0.00  0.00    +0.087 C 
BRANCH  50  51
ATOM     51  CD  GLN A   5      29.069  67.829 139.702  0.00  0.00    +0.219 C 
ATOM     52  OE1 GLN A   5      28.717  69.005 139.583  0.00  0.00    -0.275 OA
ATOM     53  NE2 GLN A   5      28.610  66.861 138.912  0.00  0.00    -0.329 N 
ATOM     54 HE21 GLN A   5      28.934  65.882 139.047  0.00  0.00    +0.145 HD
ATOM     55 HE22 GLN A   5      27.928  67.084 138.159  0.00  0.00    +0.145 HD
ENDBRANCH  50  51
ENDBRANCH  49  50
ENDBRANCH  37  49
ENDBRANCH  35  37
ENDBRANCH   1  33
BRANCH   1  56
ATOM     56  CB  LYS A   4      36.162  63.893 142.287  0.00  0.00    +0.029 C 
BRANCH  56  57
ATOM     57  CG  LYS A   4      35.116  62.809 142.473  0.00  0.00    +0.000 C 
BRANCH  57  58
ATOM     58  CD  LYS A   4      35.598  61.749 143.463  0.00  0.00    -0.024 C 
BRANCH  58  59
ATOM     59  CE  LYS A   4      34.449  60.876 143.921  0.00  0.00    -0.086 C 
BRANCH  59  60
ATOM     60  NZ  LYS A   4      34.933  59.866 144.869  0.00  0.00    +0.380 N 
ATOM     61  HZ1 LYS A   4      35.353  60.340 145.694  0.00  0.00    -0.089 HD
ATOM     62  HZ2 LYS A   4      34.137  59.272 145.177  0.00  0.00    -0.089 HD
ATOM     63  HZ3 LYS A   4      35.651  59.273 144.405  0.00  0.00    -0.089 HD
ENDBRANCH  59  60
ENDBRANCH  58  59
ENDBRANCH  57  58
ENDBRANCH  56  57
ENDBRANCH   1  56
TORSDOF 27
REMARK  Name = ../refined-set-2016/4f6w/4f6w_pocket.pdb
REMARK  309 active torsions:
REMARK  status: ('A' for Active; 'I' for Inactive)
REMARK    1  A    between atoms: _1  and  _3
REMARK    2  A    between atoms: _3  and  _4
REMARK    3  A    between atoms: _3  and  _6
REMARK    4  A    between atoms: _8  and  _10
REMARK    5  A    between atoms: _10  and  _11
REMARK    6  A    between atoms: _10  and  _13
REMARK    7  A    between atoms: _13  and  _14
REMARK    8  A    between atoms: _14  and  _15
REMARK    9  A    between atoms: _15  and  _16
REMARK   10  A    between atoms: _16  and  _17
REMARK   11  A    between atoms: _21  and  _23
REMARK   12  A    between atoms: _23  and  _24
REMARK   13  A    between atoms: _23  and  _26
REMARK   14  A    between atoms: _29  and  _31
REMARK   15  A    between atoms: _31  and  _32
REMARK   16  A    between atoms: _34  and  _36
REMARK   17  A    between atoms: _36  and  _37
REMARK   18  A    between atoms: _36  and  _39
REMARK   19  A    between atoms: _39  and  _40
REMARK   20  A    between atoms: _40  and  _41
REMARK   21  A    between atoms: _41  and  _42
REMARK   22  A    between atoms: _51  and  _53
REMARK   23  A    between atoms: _53  and  _54
REMARK   24  A    between atoms: _56  and  _58
REMARK   25  A    between atoms: _58  and  _59
REMARK   26  A    between atoms: _58  and  _61
REMARK   27  A    between atoms: _61  and  _62
REMARK   28  A    between atoms: _67  and  _68
REMARK   29  A    between atoms: _70  and  _72
REMARK   30  A    between atoms: _72  and  _73
REMARK   31  A    between atoms: _75  and  _77
REMARK   32  A    between atoms: _77  and  _78
REMARK   33  A    between atoms: _77  and  _80
REMARK   34  A    between atoms: _80  and  _81
REMARK   35  A    between atoms: _86  and  _88
REMARK   36  A    between atoms: _88  and  _89
REMARK   37  A    between atoms: _88  and  _91
REMARK   38  A    between atoms: _94  and  _96
REMARK   39  A    between atoms: _96  and  _97
REMARK   40  A    between atoms: _96  and  _99
REMARK   41  A    between atoms: _99  and  _100
REMARK   42  A    between atoms: _105  and  _106
REMARK   43  A    between atoms: _108  and  _110
REMARK   44  A    between atoms: _110  and  _111
REMARK   45  A    between atoms: _110  and  _113
REMARK   46  A    between atoms: _113  and  _114
REMARK   47  A    between atoms: _114  and  _115
REMARK   48  A    between atoms: _115  and  _116
REMARK   49  A    between atoms: _116  and  _117
REMARK   50  A    between atoms: _121  and  _123
REMARK   51  A    between atoms: _123  and  _124
REMARK   52  A    between atoms: _127  and  _129
REMARK   53  A    between atoms: _129  and  _130
REMARK   54  A    between atoms: _129  and  _132
REMARK   55  A    between atoms: _132  and  _133
REMARK   56  A    between atoms: _138  and  _139
REMARK   57  A    between atoms: _141  and  _143
REMARK   58  A    between atoms: _143  and  _144
REMARK   59  A    between atoms: _147  and  _149
REMARK   60  A    between atoms: _149  and  _150
REMARK   61  A    between atoms: _149  and  _152
REMARK   62  A    between atoms: _152  and  _153
REMARK   63  A    between atoms: _156  and  _158
REMARK   64  A    between atoms: _158  and  _159
REMARK   65  A    between atoms: _158  and  _161
REMARK   66  A    between atoms: _161  and  _162
REMARK   67  A    between atoms: _162  and  _163
REMARK   68  A    between atoms: _163  and  _164
REMARK   69  A    between atoms: _164  and  _165
REMARK   70  A    between atoms: _169  and  _171
REMARK   71  A    between atoms: _171  and  _172
REMARK   72  A    between atoms: _171  and  _174
REMARK   73  A    between atoms: _174  and  _175
REMARK   74  A    between atoms: _175  and  _176
REMARK   75  A    between atoms: _181  and  _183
REMARK   76  A    between atoms: _183  and  _184
REMARK   77  A    between atoms: _183  and  _186
REMARK   78  A    between atoms: _186  and  _187
REMARK   79  A    between atoms: _190  and  _192
REMARK   80  A    between atoms: _192  and  _193
REMARK   81  A    between atoms: _192  and  _195
REMARK   82  A    between atoms: _195  and  _196
REMARK   83  A    between atoms: _198  and  _200
REMARK   84  A    between atoms: _200  and  _201
REMARK   85  A    between atoms: _200  and  _203
REMARK   86  A    between atoms: _203  and  _204
REMARK   87  A    between atoms: _204  and  _205
REMARK   88  A    between atoms: _207  and  _209
REMARK   89  A    between atoms: _209  and  _210
REMARK   90  A    between atoms: _209  and  _212
REMARK   91  A    between atoms: _212  and  _213
REMARK   92  A    between atoms: _215  and  _217
REMARK   93  A    between atoms: _217  and  _218
REMARK   94  A    between atoms: _221  and  _223
REMARK   95  A    between atoms: _223  and  _224
REMARK   96  A    between atoms: _223  and  _226
REMARK   97  A    between atoms: _228  and  _230
REMARK   98  A    between atoms: _230  and  _231
REMARK   99  A    between atoms: _230  and  _233
REMARK  100  A    between atoms: _233  and  _234
REMARK  101  A    between atoms: _234  and  _235
REMARK  102  A    between atoms: _235  and  _236
REMARK  103  A    between atoms: _245  and  _247
REMARK  104  A    between atoms: _247  and  _248
REMARK  105  A    between atoms: _247  and  _250
REMARK  106  A    between atoms: _250  and  _251
REMARK  107  A    between atoms: _251  and  _252
REMARK  108  A    between atoms: _255  and  _257
REMARK  109  A    between atoms: _257  and  _258
REMARK  110  A    between atoms: _257  and  _260
REMARK  111  A    between atoms: _260  and  _261
REMARK  112  A    between atoms: _264  and  _266
REMARK  113  A    between atoms: _266  and  _267
REMARK  114  A    between atoms: _270  and  _272
REMARK  115  A    between atoms: _272  and  _273
REMARK  116  A    between atoms: _272  and  _275
REMARK  117  A    between atoms: _275  and  _276
REMARK  118  A    between atoms: _279  and  _281
REMARK  119  A    between atoms: _281  and  _282
REMARK  120  A    between atoms: _281  and  _284
REMARK  121  A    between atoms: _284  and  _285
REMARK  122  A    between atoms: _288  and  _290
REMARK  123  A    between atoms: _290  and  _291
REMARK  124  A    between atoms: _290  and  _293
REMARK  125  A    between atoms: _293  and  _294
REMARK  126  A    between atoms: _297  and  _299
REMARK  127  A    between atoms: _299  and  _300
REMARK  128  A    between atoms: _299  and  _302
REMARK  129  A    between atoms: _302  and  _303
REMARK  130  A    between atoms: _308  and  _310
REMARK  131  A    between atoms: _310  and  _311
REMARK  132  A    between atoms: _310  and  _313
REMARK  133  A    between atoms: _316  and  _318
REMARK  134  A    between atoms: _318  and  _319
REMARK  135  A    between atoms: _318  and  _321
REMARK  136  A    between atoms: _321  and  _322
REMARK  137  A    between atoms: _325  and  _327
REMARK  138  A    between atoms: _327  and  _328
REMARK  139  A    between atoms: _327  and  _330
REMARK  140  A    between atoms: _330  and  _331
REMARK  141  A    between atoms: _333  and  _335
REMARK  142  A    between atoms: _335  and  _336
REMARK  143  A    between atoms: _335  and  _338
REMARK  144  A    between atoms: _338  and  _339
REMARK  145  A    between atoms: _342  and  _344
REMARK  146  A    between atoms: _344  and  _345
REMARK  147  A    between atoms: _344  and  _347
REMARK  148  A    between atoms: _347  and  _348
REMARK  149  A    between atoms: _351  and  _353
REMARK  150  A    between atoms: _353  and  _354
REMARK  151  A    between atoms: _353  and  _356
REMARK  152  A    between atoms: _356  and  _357
REMARK  153  A    between atoms: _360  and  _362
REMARK  154  A    between atoms: _362  and  _363
REMARK  155  A    between atoms: _362  and  _365
REMARK  156  A    between atoms: _365  and  _366
REMARK  157  A    between atoms: _372  and  _374
REMARK  158  A    between atoms: _374  and  _375
REMARK  159  A    between atoms: _374  and  _377
REMARK  160  A    between atoms: _377  and  _378
REMARK  161  A    between atoms: _381  and  _383
REMARK  162  A    between atoms: _383  and  _384
REMARK  163  A    between atoms: _383  and  _386
REMARK  164  A    between atoms: _386  and  _387
REMARK  165  A    between atoms: _392  and  _393
REMARK  166  A    between atoms: _395  and  _397
REMARK  167  A    between atoms: _397  and  _398
REMARK  168  A    between atoms: _401  and  _403
REMARK  169  A    between atoms: _403  and  _404
REMARK  170  A    between atoms: _403  and  _406
REMARK  171  A    between atoms: _406  and  _407
REMARK  172  A    between atoms: _407  and  _408
REMARK  173  A    between atoms: _411  and  _413
REMARK  174  A    between atoms: _413  and  _414
REMARK  175  A    between atoms: _413  and  _416
REMARK  176  A    between atoms: _416  and  _417
REMARK  177  A    between atoms: _422  and  _424
REMARK  178  A    between atoms: _424  and  _425
REMARK  179  A    between atoms: _424  and  _427
REMARK  180  A    between atoms: _427  and  _428
REMARK  181  A    between atoms: _431  and  _433
REMARK  182  A    between atoms: _433  and  _434
REMARK  183  A    between atoms: _433  and  _436
REMARK  184  A    between atoms: _436  and  _437
REMARK  185  A    between atoms: _440  and  _442
REMARK  186  A    between atoms: _442  and  _443
REMARK  187  A    between atoms: _442  and  _445
REMARK  188  A    between atoms: _445  and  _446
REMARK  189  A    between atoms: _456  and  _458
REMARK  190  A    between atoms: _458  and  _459
REMARK  191  A    between atoms: _458  and  _461
REMARK  192  A    between atoms: _461  and  _462
REMARK  193  A    between atoms: _467  and  _469
REMARK  194  A    between atoms: _469  and  _470
REMARK  195  A    between atoms: _469  and  _472
REMARK  196  A    between atoms: _472  and  _473
REMARK  197  A    between atoms: _476  and  _478
REMARK  198  A    between atoms: _478  and  _479
REMARK  199  A    between atoms: _478  and  _481
REMARK  200  A    between atoms: _481  and  _482
REMARK  201  A    between atoms: _482  and  _483
REMARK  202  A    between atoms: _483  and  _484
REMARK  203  A    between atoms: _484  and  _485
REMARK  204  A    between atoms: _489  and  _491
REMARK  205  A    between atoms: _491  and  _492
REMARK  206  A    between atoms: _494  and  _496
REMARK  207  A    between atoms: _496  and  _497
REMARK  208  A    between atoms: _496  and  _499
REMARK  209  A    between atoms: _499  and  _500
REMARK  210  A    between atoms: _503  and  _505
REMARK  211  A    between atoms: _505  and  _506
REMARK  212  A    between atoms: _505  and  _508
REMARK  213  A    between atoms: _508  and  _509
REMARK  214  A    between atoms: _514  and  _515
REMARK  215  A    between atoms: _517  and  _519
REMARK  216  A    between atoms: _519  and  _520
REMARK  217  A    between atoms: _519  and  _522
REMARK  218  A    between atoms: _522  and  _523
REMARK  219  A    between atoms: _526  and  _528
REMARK  220  A    between atoms: _528  and  _529
REMARK  221  A    between atoms: _528  and  _531
REMARK  222  A    between atoms: _534  and  _536
REMARK  223  A    between atoms: _536  and  _537
REMARK  224  A    between atoms: _536  and  _539
REMARK  225  A    between atoms: _539  and  _540
REMARK  226  A    between atoms: _543  and  _545
REMARK  227  A    between atoms: _545  and  _546
REMARK  228  A    between atoms: _545  and  _548
REMARK  229  A    between atoms: _548  and  _549
REMARK  230  A    between atoms: _554  and  _556
REMARK  231  A    between atoms: _556  and  _557
REMARK  232  A    between atoms: _556  and  _559
REMARK  233  A    between atoms: _559  and  _560
REMARK  234  A    between atoms: _560  and  _561
REMARK  235  A    between atoms: _561  and  _562
REMARK  236  A    between atoms: _571  and  _573
REMARK  237  A    between atoms: _573  and  _574
REMARK  238  A    between atoms: _573  and  _576
REMARK  239  A    between atoms: _576  and  _577
REMARK  240  A    between atoms: _580  and  _582
REMARK  241  A    between atoms: _582  and  _583
REMARK  242  A    between atoms: _582  and  _585
REMARK  243  A    between atoms: _585  and  _586
REMARK  244  A    between atoms: _589  and  _591
REMARK  245  A    between atoms: _591  and  _592
REMARK  246  A    between atoms: _591  and  _594
REMARK  247  A    between atoms: _594  and  _595
REMARK  248  A    between atoms: _595  and  _596
REMARK  249  A    between atoms: _596  and  _597
REMARK  250  A    between atoms: _597  and  _598
REMARK  251  A    between atoms: _603  and  _604
REMARK  252  A    between atoms: _609  and  _611
REMARK  253  A    between atoms: _611  and  _612
REMARK  254  A    between atoms: _615  and  _617
REMARK  255  A    between atoms: _617  and  _618
REMARK  256  A    between atoms: _617  and  _620
REMARK  257  A    between atoms: _620  and  _621
REMARK  258  A    between atoms: _626  and  _628
REMARK  259  A    between atoms: _628  and  _629
REMARK  260  A    between atoms: _628  and  _631
REMARK  261  A    between atoms: _631  and  _632
REMARK  262  A    between atoms: _635  and  _637
REMARK  263  A    between atoms: _637  and  _638
REMARK  264  A    between atoms: _637  and  _640
REMARK  265  A    between atoms: _640  and  _641
REMARK  266  A    between atoms: _644  and  _646
REMARK  267  A    between atoms: _646  and  _647
REMARK  268  A    between atoms: _646  and  _649
REMARK  269  A    between atoms: _652  and  _654
REMARK  270  A    between atoms: _654  and  _655
REMARK  271  A    between atoms: _654  and  _657
REMARK  272  A    between atoms: _657  and  _658
REMARK  273  A    between atoms: _658  and  _659
REMARK  274  A    between atoms: _659  and  _660
REMARK  275  A    between atoms: _660  and  _661
REMARK  276  A    between atoms: _665  and  _667
REMARK  277  A    between atoms: _667  and  _668
REMARK  278  A    between atoms: _667  and  _670
REMARK  279  A    between atoms: _670  and  _671
REMARK  280  A    between atoms: _674  and  _676
REMARK  281  A    between atoms: _676  and  _677
REMARK  282  A    between atoms: _680  and  _682
REMARK  283  A    between atoms: _682  and  _683
REMARK  284  A    between atoms: _682  and  _685
REMARK  285  A    between atoms: _685  and  _686
REMARK  286  A    between atoms: _689  and  _691
REMARK  287  A    between atoms: _691  and  _692
REMARK  288  A    between atoms: _691  and  _694
REMARK  289  A    between atoms: _694  and  _695
REMARK  290  A    between atoms: _695  and  _696
REMARK  291  A    between atoms: _698  and  _700
REMARK  292  A    between atoms: _700  and  _701
REMARK  293  A    between atoms: _703  and  _705
REMARK  294  A    between atoms: _705  and  _706
REMARK  295  A    between atoms: _705  and  _708
REMARK  296  A    between atoms: _708  and  _709
REMARK  297  A    between atoms: _715  and  _717
REMARK  298  A    between atoms: _717  and  _718
REMARK  299  A    between atoms: _721  and  _723
REMARK  300  A    between atoms: _723  and  _724
REMARK  301  A    between atoms: _723  and  _726
REMARK  302  A    between atoms: _726  and  _727
REMARK  303  A    between atoms: _727  and  _728
REMARK  304  A    between atoms: _728  and  _729
REMARK  305  A    between atoms: _738  and  _740
REMARK  306  A    between atoms: _740  and  _741
REMARK  307  A    between atoms: _740  and  _743
REMARK  308  A    between atoms: _743  and  _744
REMARK  309  A    between atoms: _744  and  _745
REMARK                            x       y       z     vdW  Elec       q    Type
REMARK                         _______ _______ _______ _____ _____    ______ ____
ROOT
ATOM      1  CA  ARG A   6      33.172  59.315 154.387  0.00  0.00    +0.149 C 
ENDROOT
BRANCH   1   2
ATOM      2  C   ARG A   6      34.417  59.658 153.610  0.00  0.00    +0.241 C 
ATOM      3  O   ARG A   6      35.522  59.516 154.145  0.00  0.00    -0.273 OA
ATOM      4  N   GLU A   7      34.266  60.084 152.353  0.00  0.00    -0.297 N 
ATOM      5  H   GLU A   7      33.315  60.183 151.943  0.00  0.00    +0.150 HD
BRANCH   4   6
ATOM      6  CA  GLU A   7      35.451  60.410 151.557  0.00  0.00    +0.149 C 
BRANCH   6   7
ATOM      7  C   GLU A   7      36.187  61.636 152.118  0.00  0.00    +0.241 C 
ATOM      8  N   ILE A   8      35.433  62.658 152.512  0.00  0.00    -0.297 N 
ATOM      9  H   ILE A   8      34.400  62.581 152.422  0.00  0.00    +0.150 HD
ATOM     10  O   GLU A   7      37.404  61.636 152.187  0.00  0.00    -0.273 OA
BRANCH   8  11
ATOM     11  CA  ILE A   8      36.000  63.885 153.067  0.00  0.00    +0.149 C 
BRANCH  11  12
ATOM     12  C   ILE A   8      36.649  63.609 154.423  0.00  0.00    +0.241 C 
ATOM     13  N   ALA A   9      35.887  63.026 155.344  0.00  0.00    -0.297 N 
ATOM     14  H   ALA A   9      34.901  62.798 155.102  0.00  0.00    +0.150 HD
ATOM     15  O   ILE A   8      37.809  63.911 154.619  0.00  0.00    -0.273 OA
BRANCH  13  16
ATOM     16  CA  ALA A   9      36.376  62.691 156.685  0.00  0.00    +0.149 C 
ATOM     17  CB  ALA A   9      35.332  61.854 157.443  0.00  0.00    +0.031 C 
BRANCH  16  18
ATOM     18  C   ALA A   9      37.712  61.939 156.648  0.00  0.00    +0.241 C 
ATOM     19  O   ALA A   9      38.646  62.288 157.368  0.00  0.00    -0.273 OA
ATOM     20  N   LEU A  10      37.785  60.908 155.814  0.00  0.00    -0.297 N 
ATOM     21  H   LEU A  10      36.974  60.709 155.194  0.00  0.00    +0.150 HD
BRANCH  20  22
ATOM     22  CA  LEU A  10      38.960  60.041 155.732  0.00  0.00    +0.149 C 
BRANCH  22  23
ATOM     23  C   LEU A  10      40.124  60.720 155.011  0.00  0.00    +0.241 C 
ATOM     24  O   LEU A  10      41.241  60.798 155.543  0.00  0.00    -0.273 OA
ATOM     25  N   LEU A  11      39.871  61.224 153.803  0.00  0.00    -0.298 N 
ATOM     26  H   LEU A  11      38.897  61.233 153.438  0.00  0.00    +0.150 HD
BRANCH  25  27
ATOM     27  CA  LEU A  11      40.967  61.768 152.986  0.00  0.00    +0.137 C 
BRANCH  27  28
ATOM     28  C   LEU A  11      41.544  63.063 153.569  0.00  0.00    +0.227 C 
ATOM     29  O   LEU A  11      42.670  63.418 153.261  0.00  0.00    -0.286 OA
ENDBRANCH  27  28
BRANCH  27  30
ATOM     30  CB  LEU A  11      40.541  61.971 151.527  0.00  0.00    +0.028 C 
BRANCH  30  31
ATOM     31  CG  LEU A  11      40.588  60.725 150.632  0.00  0.00    +0.002 C 
ATOM     32  CD2 LEU A  11      39.894  59.525 151.265  0.00  0.00    +0.000 C 
ATOM     33  CD1 LEU A  11      42.034  60.394 150.287  0.00  0.00    +0.000 C 
ENDBRANCH  30  31
ENDBRANCH  27  30
ENDBRANCH  25  27
ENDBRANCH  22  23
BRANCH  22  34
ATOM     34  CB  LEU A  10      38.601  58.742 155.008  0.00  0.00    +0.029 C 
BRANCH  34  35
ATOM     35  CG  LEU A  10      39.511  57.547 155.260  0.00  0.00    +0.002 C 
ATOM     36  CD2 LEU A  10      39.319  57.040 156.673  0.00  0.00    +0.000 C 
ATOM     37  CD1 LEU A  10      39.203  56.442 154.249  0.00  0.00    +0.000 C 
ENDBRANCH  34  35
ENDBRANCH  22  34
ENDBRANCH  20  22
ENDBRANCH  16  18
ENDBRANCH  13  16
ENDBRANCH  11  12
BRANCH  11  38
ATOM     38  CB  ILE A   8      34.918  64.995 153.204  0.00  0.00    +0.027 C 
ATOM     39  CG2 ILE A   8      35.445  66.179 154.017  0.00  0.00    +0.002 C 
BRANCH  38  40
ATOM     40  CG1 ILE A   8      34.480  65.486 151.824  0.00  0.00    +0.002 C 
ATOM     41  CD1 ILE A   8      33.189  66.316 151.843  0.00  0.00    +0.000 C 
ENDBRANCH  38  40
ENDBRANCH  11  38
ENDBRANCH   8  11
ENDBRANCH   6   7
BRANCH   6  42
ATOM     42  CB  GLU A   7      35.108  60.629 150.089  0.00  0.00    +0.041 C 
BRANCH  42  43
ATOM     43  CG  GLU A   7      36.349  60.797 149.213  0.00  0.00    +0.116 C 
BRANCH  43  44
ATOM     44  CD  GLU A   7      36.055  60.701 147.733  0.00  0.00    +0.365 C 
ATOM     45  OE2 GLU A   7      34.881  60.872 147.336  0.00  0.00    -0.246 OA
ATOM     46  OE1 GLU A   7      37.011  60.460 146.963  0.00  0.00    -0.246 OA
ENDBRANCH  43  44
ENDBRANCH  42  43
ENDBRANCH   6  42
ENDBRANCH   4   6
ENDBRANCH   1   2
BRANCH   1  49
ATOM     47  C   CYS A   5      32.201  61.558 154.581  0.00  0.00    +0.242 C 
ATOM     48  O   CYS A   5      33.161  61.976 155.203  0.00  0.00    -0.273 OA
ATOM     49  N   ARG A   6      32.097  60.292 154.166  0.00  0.00    -0.297 N 
ATOM     50  H   ARG A   6      31.232  59.990 153.673  0.00  0.00    +0.150 HD
BRANCH  47  51
ATOM     51  CA  CYS A   5      31.059  62.514 154.250  0.00  0.00    +0.160 C 
BRANCH  51  53
ATOM     52  C   ALA A   4      31.365  62.642 151.824  0.00  0.00    +0.241 C 
ATOM     53  N   CYS A   5      30.588  62.398 152.872  0.00  0.00    -0.296 N 
ATOM     54  H   CYS A   5      29.602  62.112 152.705  0.00  0.00    +0.150 HD
ATOM     55  O   ALA A   4      32.542  62.952 151.919  0.00  0.00    -0.273 OA
BRANCH  52  56
ATOM     56  CA  ALA A   4      30.722  62.462 150.455  0.00  0.00    +0.149 C 
ATOM     57  CB  ALA A   4      29.839  63.681 150.089  0.00  0.00    +0.031 C 
BRANCH  56  60
ATOM     58  C   SER A   3      30.492  60.033 150.592  0.00  0.00    +0.243 C 
ATOM     59  O   SER A   3      31.694  59.849 150.707  0.00  0.00    -0.273 OA
ATOM     60  N   ALA A   4      29.938  61.233 150.453  0.00  0.00    -0.297 N 
ATOM     61  H   ALA A   4      28.906  61.298 150.339  0.00  0.00    +0.150 HD
BRANCH  58  62
ATOM     62  CA  SER A   3      29.537  58.845 150.566  0.00  0.00    +0.178 C 
BRANCH  62  65
ATOM     63  C   MET A   2      28.529  59.122 152.803  0.00  0.00    +0.241 C 
ATOM     64  O   MET A   2      29.621  59.116 153.377  0.00  0.00    -0.273 OA
ATOM     65  N   SER A   3      28.392  58.999 151.479  0.00  0.00    -0.295 N 
ATOM     66  H   SER A   3      27.434  59.013 151.076  0.00  0.00    +0.150 HD
BRANCH  63  67
ATOM     67  CA  MET A   2      27.241  59.312 153.613  0.00  0.00    +0.149 C 
BRANCH  67  69
ATOM     68  C   SER A   1      26.677  61.414 152.536  0.00  0.00    +0.241 C 
ATOM     69  N   MET A   2      26.308  60.206 152.941  0.00  0.00    -0.297 N 
ATOM     70  H   MET A   2      25.331  59.890 152.775  0.00  0.00    +0.150 HD
ATOM     71  O   SER A   1      27.764  61.922 152.827  0.00  0.00    -0.274 OA
BRANCH  68  72
ATOM     72  CA  SER A   1      25.677  62.170 151.677  0.00  0.00    +0.174 C 
BRANCH  72  73
ATOM     73  N   SER A   1      26.097  63.560 151.594  0.00  0.00    -0.236 NA
ATOM     74  H   SER A   1      26.474  63.923 150.695  0.00  0.00    +0.142 HD
ENDBRANCH  72  73
BRANCH  72  75
ATOM     75  CB  SER A   1      25.588  61.545 150.278  0.00  0.00    +0.163 C 
BRANCH  75  76
ATOM     76  OG  SER A   1      26.759  61.811 149.520  0.00  0.00    -0.380 OA
ATOM     77  H   SER A   1      26.673  61.397 148.625  0.00  0.00    +0.211 HD
ENDBRANCH  75  76
ENDBRANCH  72  75
ENDBRANCH  68  72
ENDBRANCH  67  69
BRANCH  67  78
ATOM     78  CB  MET A   2      26.583  57.952 153.891  0.00  0.00    +0.041 C 
BRANCH  78  79
ATOM     79  CG  MET A   2      25.509  57.979 154.987  0.00  0.00    +0.060 C 
BRANCH  79  80
ATOM     80  SD  MET A   2      26.019  58.677 156.590  0.00  0.00    -0.139 S 
ATOM     81  CE  MET A   2      27.567  57.805 156.845  0.00  0.00    +0.069 C 
ENDBRANCH  79  80
ENDBRANCH  78  79
ENDBRANCH  67  78
ENDBRANCH  63  67
ENDBRANCH  62  65
BRANCH  62  82
ATOM     82  CB  SER A   3      29.071  58.624 149.124  0.00  0.00    +0.166 C 
BRANCH  82  83
ATOM     83  OG  SER A   3      28.670  57.286 148.950  0.00  0.00    -0.380 OA
ATOM     84  H   SER A   3      28.370  57.151 148.016  0.00  0.00    +0.211 HD
ENDBRANCH  82  83
ENDBRANCH  62  82
ENDBRANCH  58  62
ENDBRANCH  56  60
ENDBRANCH  52  56
ENDBRANCH  51  53
BRANCH  51  85
ATOM     85  CB  CYS A   5      29.898  62.282 155.215  0.00  0.00    +0.098 C 
ATOM     86  SG  CYS A   5      30.329  62.428 156.942  0.00  0.00    -0.080 S 
ENDBRANCH  51  85
ENDBRANCH  47  51
ENDBRANCH   1  49
BRANCH   1  87
ATOM     87  CB  ARG A   6      32.765  57.859 154.055  0.00  0.00    +0.033 C 
BRANCH  87  88
ATOM     88  CG  ARG A   6      33.870  56.815 154.456  0.00  0.00    +0.045 C 
BRANCH  88  89
ATOM     89  CD  ARG A   6      33.494  55.334 154.211  0.00  0.00    +0.174 C 
BRANCH  89  90
ATOM     90  NE  ARG A   6      34.588  54.579 153.573  0.00  0.00    -0.265 N 
ATOM     91  CZ  ARG A   6      35.607  53.968 154.192  0.00  0.00    +0.342 C 
ATOM     92  NH2 ARG A   6      35.729  53.973 155.525  0.00  0.00    -0.292 N 
ATOM     93 HH21 ARG A   6      35.021  54.461 156.110  0.00  0.00    +0.255 HD
ATOM     94 HH22 ARG A   6      36.532  53.489 155.976  0.00  0.00    +0.255 HD
ATOM     95  NH1 ARG A   6      36.526  53.331 153.458  0.00  0.00    -0.292 N 
ATOM     96 HH11 ARG A   6      37.323  52.852 153.924  0.00  0.00    +0.255 HD
ATOM     97 HH12 ARG A   6      36.444  53.315 152.421  0.00  0.00    +0.255 HD
ATOM     98  HE  ARG A   6      34.566  54.514 152.535  0.00  0.00    +0.259 HD
ENDBRANCH  89  90
ENDBRANCH  88  89
ENDBRANCH  87  88
ENDBRANCH   1  87
TORSDOF 43
REMARK  Name = ../refined-set-2016/4f6w/4f6w_pocket.pdb
REMARK  309 active torsions:
REMARK  status: ('A' for Active; 'I' for Inactive)
REMARK    1  A    between atoms: _1  and  _3
REMARK    2  A    between atoms: _3  and  _4
REMARK    3  A    between atoms: _3  and  _6
REMARK    4  A    between atoms: _8  and  _10
REMARK    5  A    between atoms: _10  and  _11
REMARK    6  A    between atoms: _10  and  _13
REMARK    7  A    between atoms: _13  and  _14
REMARK    8  A    between atoms: _14  and  _15
REMARK    9  A    between atoms: _15  and  _16
REMARK   10  A    between atoms: _16  and  _17
REMARK   11  A    between atoms: _21  and  _23
REMARK   12  A    between atoms: _23  and  _24
REMARK   13  A    between atoms: _23  and  _26
REMARK   14  A    between atoms: _29  and  _31
REMARK   15  A    between atoms: _31  and  _32
REMARK   16  A    between atoms: _34  and  _36
REMARK   17  A    between atoms: _36  and  _37
REMARK   18  A    between atoms: _36  and  _39
REMARK   19  A    between atoms: _39  and  _40
REMARK   20  A    between atoms: _40  and  _41
REMARK   21  A    between atoms: _41  and  _42
REMARK   22  A    between atoms: _51  and  _53
REMARK   23  A    between atoms: _53  and  _54
REMARK   24  A    between atoms: _56  and  _58
REMARK   25  A    between atoms: _58  and  _59
REMARK   26  A    between atoms: _58  and  _61
REMARK   27  A    between atoms: _61  and  _62
REMARK   28  A    between atoms: _67  and  _68
REMARK   29  A    between atoms: _70  and  _72
REMARK   30  A    between atoms: _72  and  _73
REMARK   31  A    between atoms: _75  and  _77
REMARK   32  A    between atoms: _77  and  _78
REMARK   33  A    between atoms: _77  and  _80
REMARK   34  A    between atoms: _80  and  _81
REMARK   35  A    between atoms: _86  and  _88
REMARK   36  A    between atoms: _88  and  _89
REMARK   37  A    between atoms: _88  and  _91
REMARK   38  A    between atoms: _94  and  _96
REMARK   39  A    between atoms: _96  and  _97
REMARK   40  A    between atoms: _96  and  _99
REMARK   41  A    between atoms: _99  and  _100
REMARK   42  A    between atoms: _105  and  _106
REMARK   43  A    between atoms: _108  and  _110
REMARK   44  A    between atoms: _110  and  _111
REMARK   45  A    between atoms: _110  and  _113
REMARK   46  A    between atoms: _113  and  _114
REMARK   47  A    between atoms: _114  and  _115
REMARK   48  A    between atoms: _115  and  _116
REMARK   49  A    between atoms: _116  and  _117
REMARK   50  A    between atoms: _121  and  _123
REMARK   51  A    between atoms: _123  and  _124
REMARK   52  A    between atoms: _127  and  _129
REMARK   53  A    between atoms: _129  and  _130
REMARK   54  A    between atoms: _129  and  _132
REMARK   55  A    between atoms: _132  and  _133
REMARK   56  A    between atoms: _138  and  _139
REMARK   57  A    between atoms: _141  and  _143
REMARK   58  A    between atoms: _143  and  _144
REMARK   59  A    between atoms: _147  and  _149
REMARK   60  A    between atoms: _149  and  _150
REMARK   61  A    between atoms: _149  and  _152
REMARK   62  A    between atoms: _152  and  _153
REMARK   63  A    between atoms: _156  and  _158
REMARK   64  A    between atoms: _158  and  _159
REMARK   65  A    between atoms: _158  and  _161
REMARK   66  A    between atoms: _161  and  _162
REMARK   67  A    between atoms: _162  and  _163
REMARK   68  A    between atoms: _163  and  _164
REMARK   69  A    between atoms: _164  and  _165
REMARK   70  A    between atoms: _169  and  _171
REMARK   71  A    between atoms: _171  and  _172
REMARK   72  A    between atoms: _171  and  _174
REMARK   73  A    between atoms: _174  and  _175
REMARK   74  A    between atoms: _175  and  _176
REMARK   75  A    between atoms: _181  and  _183
REMARK   76  A    between atoms: _183  and  _184
REMARK   77  A    between atoms: _183  and  _186
REMARK   78  A    between atoms: _186  and  _187
REMARK   79  A    between atoms: _190  and  _192
REMARK   80  A    between atoms: _192  and  _193
REMARK   81  A    between atoms: _192  and  _195
REMARK   82  A    between atoms: _195  and  _196
REMARK   83  A    between atoms: _198  and  _200
REMARK   84  A    between atoms: _200  and  _201
REMARK   85  A    between atoms: _200  and  _203
REMARK   86  A    between atoms: _203  and  _204
REMARK   87  A    between atoms: _204  and  _205
REMARK   88  A    between atoms: _207  and  _209
REMARK   89  A    between atoms: _209  and  _210
REMARK   90  A    between atoms: _209  and  _212
REMARK   91  A    between atoms: _212  and  _213
REMARK   92  A    between atoms: _215  and  _217
REMARK   93  A    between atoms: _217  and  _218
REMARK   94  A    between atoms: _221  and  _223
REMARK   95  A    between atoms: _223  and  _224
REMARK   96  A    between atoms: _223  and  _226
REMARK   97  A    between atoms: _228  and  _230
REMARK   98  A    between atoms: _230  and  _231
REMARK   99  A    between atoms: _230  and  _233
REMARK  100  A    between atoms: _233  and  _234
REMARK  101  A    between atoms: _234  and  _235
REMARK  102  A    between atoms: _235  and  _236
REMARK  103  A    between atoms: _245  and  _247
REMARK  104  A    between atoms: _247  and  _248
REMARK  105  A    between atoms: _247  and  _250
REMARK  106  A    between atoms: _250  and  _251
REMARK  107  A    between atoms: _251  and  _252
REMARK  108  A    between atoms: _255  and  _257
REMARK  109  A    between atoms: _257  and  _258
REMARK  110  A    between atoms: _257  and  _260
REMARK  111  A    between atoms: _260  and  _261
REMARK  112  A    between atoms: _264  and  _266
REMARK  113  A    between atoms: _266  and  _267
REMARK  114  A    between atoms: _270  and  _272
REMARK  115  A    between atoms: _272  and  _273
REMARK  116  A    between atoms: _272  and  _275
REMARK  117  A    between atoms: _275  and  _276
REMARK  118  A    between atoms: _279  and  _281
REMARK  119  A    between atoms: _281  and  _282
REMARK  120  A    between atoms: _281  and  _284
REMARK  121  A    between atoms: _284  and  _285
REMARK  122  A    between atoms: _288  and  _290
REMARK  123  A    between atoms: _290  and  _291
REMARK  124  A    between atoms: _290  and  _293
REMARK  125  A    between atoms: _293  and  _294
REMARK  126  A    between atoms: _297  and  _299
REMARK  127  A    between atoms: _299  and  _300
REMARK  128  A    between atoms: _299  and  _302
REMARK  129  A    between atoms: _302  and  _303
REMARK  130  A    between atoms: _308  and  _310
REMARK  131  A    between atoms: _310  and  _311
REMARK  132  A    between atoms: _310  and  _313
REMARK  133  A    between atoms: _316  and  _318
REMARK  134  A    between atoms: _318  and  _319
REMARK  135  A    between atoms: _318  and  _321
REMARK  136  A    between atoms: _321  and  _322
REMARK  137  A    between atoms: _325  and  _327
REMARK  138  A    between atoms: _327  and  _328
REMARK  139  A    between atoms: _327  and  _330
REMARK  140  A    between atoms: _330  and  _331
REMARK  141  A    between atoms: _333  and  _335
REMARK  142  A    between atoms: _335  and  _336
REMARK  143  A    between atoms: _335  and  _338
REMARK  144  A    between atoms: _338  and  _339
REMARK  145  A    between atoms: _342  and  _344
REMARK  146  A    between atoms: _344  and  _345
REMARK  147  A    between atoms: _344  and  _347
REMARK  148  A    between atoms: _347  and  _348
REMARK  149  A    between atoms: _351  and  _353
REMARK  150  A    between atoms: _353  and  _354
REMARK  151  A    between atoms: _353  and  _356
REMARK  152  A    between atoms: _356  and  _357
REMARK  153  A    between atoms: _360  and  _362
REMARK  154  A    between atoms: _362  and  _363
REMARK  155  A    between atoms: _362  and  _365
REMARK  156  A    between atoms: _365  and  _366
REMARK  157  A    between atoms: _372  and  _374
REMARK  158  A    between atoms: _374  and  _375
REMARK  159  A    between atoms: _374  and  _377
REMARK  160  A    between atoms: _377  and  _378
REMARK  161  A    between atoms: _381  and  _383
REMARK  162  A    between atoms: _383  and  _384
REMARK  163  A    between atoms: _383  and  _386
REMARK  164  A    between atoms: _386  and  _387
REMARK  165  A    between atoms: _392  and  _393
REMARK  166  A    between atoms: _395  and  _397
REMARK  167  A    between atoms: _397  and  _398
REMARK  168  A    between atoms: _401  and  _403
REMARK  169  A    between atoms: _403  and  _404
REMARK  170  A    between atoms: _403  and  _406
REMARK  171  A    between atoms: _406  and  _407
REMARK  172  A    between atoms: _407  and  _408
REMARK  173  A    between atoms: _411  and  _413
REMARK  174  A    between atoms: _413  and  _414
REMARK  175  A    between atoms: _413  and  _416
REMARK  176  A    between atoms: _416  and  _417
REMARK  177  A    between atoms: _422  and  _424
REMARK  178  A    between atoms: _424  and  _425
REMARK  179  A    between atoms: _424  and  _427
REMARK  180  A    between atoms: _427  and  _428
REMARK  181  A    between atoms: _431  and  _433
REMARK  182  A    between atoms: _433  and  _434
REMARK  183  A    between atoms: _433  and  _436
REMARK  184  A    between atoms: _436  and  _437
REMARK  185  A    between atoms: _440  and  _442
REMARK  186  A    between atoms: _442  and  _443
REMARK  187  A    between atoms: _442  and  _445
REMARK  188  A    between atoms: _445  and  _446
REMARK  189  A    between atoms: _456  and  _458
REMARK  190  A    between atoms: _458  and  _459
REMARK  191  A    between atoms: _458  and  _461
REMARK  192  A    between atoms: _461  and  _462
REMARK  193  A    between atoms: _467  and  _469
REMARK  194  A    between atoms: _469  and  _470
REMARK  195  A    between atoms: _469  and  _472
REMARK  196  A    between atoms: _472  and  _473
REMARK  197  A    between atoms: _476  and  _478
REMARK  198  A    between atoms: _478  and  _479
REMARK  199  A    between atoms: _478  and  _481
REMARK  200  A    between atoms: _481  and  _482
REMARK  201  A    between atoms: _482  and  _483
REMARK  202  A    between atoms: _483  and  _484
REMARK  203  A    between atoms: _484  and  _485
REMARK  204  A    between atoms: _489  and  _491
REMARK  205  A    between atoms: _491  and  _492
REMARK  206  A    between atoms: _494  and  _496
REMARK  207  A    between atoms: _496  and  _497
REMARK  208  A    between atoms: _496  and  _499
REMARK  209  A    between atoms: _499  and  _500
REMARK  210  A    between atoms: _503  and  _505
REMARK  211  A    between atoms: _505  and  _506
REMARK  212  A    between atoms: _505  and  _508
REMARK  213  A    between atoms: _508  and  _509
REMARK  214  A    between atoms: _514  and  _515
REMARK  215  A    between atoms: _517  and  _519
REMARK  216  A    between atoms: _519  and  _520
REMARK  217  A    between atoms: _519  and  _522
REMARK  218  A    between atoms: _522  and  _523
REMARK  219  A    between atoms: _526  and  _528
REMARK  220  A    between atoms: _528  and  _529
REMARK  221  A    between atoms: _528  and  _531
REMARK  222  A    between atoms: _534  and  _536
REMARK  223  A    between atoms: _536  and  _537
REMARK  224  A    between atoms: _536  and  _539
REMARK  225  A    between atoms: _539  and  _540
REMARK  226  A    between atoms: _543  and  _545
REMARK  227  A    between atoms: _545  and  _546
REMARK  228  A    between atoms: _545  and  _548
REMARK  229  A    between atoms: _548  and  _549
REMARK  230  A    between atoms: _554  and  _556
REMARK  231  A    between atoms: _556  and  _557
REMARK  232  A    between atoms: _556  and  _559
REMARK  233  A    between atoms: _559  and  _560
REMARK  234  A    between atoms: _560  and  _561
REMARK  235  A    between atoms: _561  and  _562
REMARK  236  A    between atoms: _571  and  _573
REMARK  237  A    between atoms: _573  and  _574
REMARK  238  A    between atoms: _573  and  _576
REMARK  239  A    between atoms: _576  and  _577
REMARK  240  A    between atoms: _580  and  _582
REMARK  241  A    between atoms: _582  and  _583
REMARK  242  A    between atoms: _582  and  _585
REMARK  243  A    between atoms: _585  and  _586
REMARK  244  A    between atoms: _589  and  _591
REMARK  245  A    between atoms: _591  and  _592
REMARK  246  A    between atoms: _591  and  _594
REMARK  247  A    between atoms: _594  and  _595
REMARK  248  A    between atoms: _595  and  _596
REMARK  249  A    between atoms: _596  and  _597
REMARK  250  A    between atoms: _597  and  _598
REMARK  251  A    between atoms: _603  and  _604
REMARK  252  A    between atoms: _609  and  _611
REMARK  253  A    between atoms: _611  and  _612
REMARK  254  A    between atoms: _615  and  _617
REMARK  255  A    between atoms: _617  and  _618
REMARK  256  A    between atoms: _617  and  _620
REMARK  257  A    between atoms: _620  and  _621
REMARK  258  A    between atoms: _626  and  _628
REMARK  259  A    between atoms: _628  and  _629
REMARK  260  A    between atoms: _628  and  _631
REMARK  261  A    between atoms: _631  and  _632
REMARK  262  A    between atoms: _635  and  _637
REMARK  263  A    between atoms: _637  and  _638
REMARK  264  A    between atoms: _637  and  _640
REMARK  265  A    between atoms: _640  and  _641
REMARK  266  A    between atoms: _644  and  _646
REMARK  267  A    between atoms: _646  and  _647
REMARK  268  A    between atoms: _646  and  _649
REMARK  269  A    between atoms: _652  and  _654
REMARK  270  A    between atoms: _654  and  _655
REMARK  271  A    between atoms: _654  and  _657
REMARK  272  A    between atoms: _657  and  _658
REMARK  273  A    between atoms: _658  and  _659
REMARK  274  A    between atoms: _659  and  _660
REMARK  275  A    between atoms: _660  and  _661
REMARK  276  A    between atoms: _665  and  _667
REMARK  277  A    between atoms: _667  and  _668
REMARK  278  A    between atoms: _667  and  _670
REMARK  279  A    between atoms: _670  and  _671
REMARK  280  A    between atoms: _674  and  _676
REMARK  281  A    between atoms: _676  and  _677
REMARK  282  A    between atoms: _680  and  _682
REMARK  283  A    between atoms: _682  and  _683
REMARK  284  A    between atoms: _682  and  _685
REMARK  285  A    between atoms: _685  and  _686
REMARK  286  A    between atoms: _689  and  _691
REMARK  287  A    between atoms: _691  and  _692
REMARK  288  A    between atoms: _691  and  _694
REMARK  289  A    between atoms: _694  and  _695
REMARK  290  A    between atoms: _695  and  _696
REMARK  291  A    between atoms: _698  and  _700
REMARK  292  A    between atoms: _700  and  _701
REMARK  293  A    between atoms: _703  and  _705
REMARK  294  A    between atoms: _705  and  _706
REMARK  295  A    between atoms: _705  and  _708
REMARK  296  A    between atoms: _708  and  _709
REMARK  297  A    between atoms: _715  and  _717
REMARK  298  A    between atoms: _717  and  _718
REMARK  299  A    between atoms: _721  and  _723
REMARK  300  A    between atoms: _723  and  _724
REMARK  301  A    between atoms: _723  and  _726
REMARK  302  A    between atoms: _726  and  _727
REMARK  303  A    between atoms: _727  and  _728
REMARK  304  A    between atoms: _728  and  _729
REMARK  305  A    between atoms: _738  and  _740
REMARK  306  A    between atoms: _740  and  _741
REMARK  307  A    between atoms: _740  and  _743
REMARK  308  A    between atoms: _743  and  _744
REMARK  309  A    between atoms: _744  and  _745
REMARK                            x       y       z     vdW  Elec       q    Type
REMARK                         _______ _______ _______ _____ _____    ______ ____
ROOT
ATOM      1  CA  LEU A   1      45.416  60.562 155.472  0.00  0.00    +0.133 C 
ENDROOT
BRANCH   1   2
ATOM      2  N   LEU A   1      44.407  61.495 155.963  0.00  0.00    -0.239 NA
ATOM      3  H   LEU A   1      43.532  61.628 155.416  0.00  0.00    +0.142 HD
ENDBRANCH   1   2
BRANCH   1   4
ATOM      4  C   LEU A   1      46.508  61.314 154.763  0.00  0.00    +0.224 C 
ATOM      5  O   LEU A   1      46.243  62.289 154.060  0.00  0.00    -0.287 OA
ENDBRANCH   1   4
BRANCH   1   6
ATOM      6  CB  LEU A   1      44.798  59.539 154.523  0.00  0.00    +0.025 C 
BRANCH   6   7
ATOM      7  CG  LEU A   1      43.823  58.562 155.174  0.00  0.00    +0.002 C 
ATOM      8  CD2 LEU A   1      44.527  57.596 156.137  0.00  0.00    +0.000 C 
ATOM      9  CD1 LEU A   1      43.095  57.813 154.085  0.00  0.00    +0.000 C 
ENDBRANCH   6   7
ENDBRANCH   1   6
TORSDOF 4
REMARK  Name = ../refined-set-2016/4f6w/4f6w_pocket.pdb
REMARK  309 active torsions:
REMARK  status: ('A' for Active; 'I' for Inactive)
REMARK    1  A    between atoms: _1  and  _3
REMARK    2  A    between atoms: _3  and  _4
REMARK    3  A    between atoms: _3  and  _6
REMARK    4  A    between atoms: _8  and  _10
REMARK    5  A    between atoms: _10  and  _11
REMARK    6  A    between atoms: _10  and  _13
REMARK    7  A    between atoms: _13  and  _14
REMARK    8  A    between atoms: _14  and  _15
REMARK    9  A    between atoms: _15  and  _16
REMARK   10  A    between atoms: _16  and  _17
REMARK   11  A    between atoms: _21  and  _23
REMARK   12  A    between atoms: _23  and  _24
REMARK   13  A    between atoms: _23  and  _26
REMARK   14  A    between atoms: _29  and  _31
REMARK   15  A    between atoms: _31  and  _32
REMARK   16  A    between atoms: _34  and  _36
REMARK   17  A    between atoms: _36  and  _37
REMARK   18  A    between atoms: _36  and  _39
REMARK   19  A    between atoms: _39  and  _40
REMARK   20  A    between atoms: _40  and  _41
REMARK   21  A    between atoms: _41  and  _42
REMARK   22  A    between atoms: _51  and  _53
REMARK   23  A    between atoms: _53  and  _54
REMARK   24  A    between atoms: _56  and  _58
REMARK   25  A    between atoms: _58  and  _59
REMARK   26  A    between atoms: _58  and  _61
REMARK   27  A    between atoms: _61  and  _62
REMARK   28  A    between atoms: _67  and  _68
REMARK   29  A    between atoms: _70  and  _72
REMARK   30  A    between atoms: _72  and  _73
REMARK   31  A    between atoms: _75  and  _77
REMARK   32  A    between atoms: _77  and  _78
REMARK   33  A    between atoms: _77  and  _80
REMARK   34  A    between atoms: _80  and  _81
REMARK   35  A    between atoms: _86  and  _88
REMARK   36  A    between atoms: _88  and  _89
REMARK   37  A    between atoms: _88  and  _91
REMARK   38  A    between atoms: _94  and  _96
REMARK   39  A    between atoms: _96  and  _97
REMARK   40  A    between atoms: _96  and  _99
REMARK   41  A    between atoms: _99  and  _100
REMARK   42  A    between atoms: _105  and  _106
REMARK   43  A    between atoms: _108  and  _110
REMARK   44  A    between atoms: _110  and  _111
REMARK   45  A    between atoms: _110  and  _113
REMARK   46  A    between atoms: _113  and  _114
REMARK   47  A    between atoms: _114  and  _115
REMARK   48  A    between atoms: _115  and  _116
REMARK   49  A    between atoms: _116  and  _117
REMARK   50  A    between atoms: _121  and  _123
REMARK   51  A    between atoms: _123  and  _124
REMARK   52  A    between atoms: _127  and  _129
REMARK   53  A    between atoms: _129  and  _130
REMARK   54  A    between atoms: _129  and  _132
REMARK   55  A    between atoms: _132  and  _133
REMARK   56  A    between atoms: _138  and  _139
REMARK   57  A    between atoms: _141  and  _143
REMARK   58  A    between atoms: _143  and  _144
REMARK   59  A    between atoms: _147  and  _149
REMARK   60  A    between atoms: _149  and  _150
REMARK   61  A    between atoms: _149  and  _152
REMARK   62  A    between atoms: _152  and  _153
REMARK   63  A    between atoms: _156  and  _158
REMARK   64  A    between atoms: _158  and  _159
REMARK   65  A    between atoms: _158  and  _161
REMARK   66  A    between atoms: _161  and  _162
REMARK   67  A    between atoms: _162  and  _163
REMARK   68  A    between atoms: _163  and  _164
REMARK   69  A    between atoms: _164  and  _165
REMARK   70  A    between atoms: _169  and  _171
REMARK   71  A    between atoms: _171  and  _172
REMARK   72  A    between atoms: _171  and  _174
REMARK   73  A    between atoms: _174  and  _175
REMARK   74  A    between atoms: _175  and  _176
REMARK   75  A    between atoms: _181  and  _183
REMARK   76  A    between atoms: _183  and  _184
REMARK   77  A    between atoms: _183  and  _186
REMARK   78  A    between atoms: _186  and  _187
REMARK   79  A    between atoms: _190  and  _192
REMARK   80  A    between atoms: _192  and  _193
REMARK   81  A    between atoms: _192  and  _195
REMARK   82  A    between atoms: _195  and  _196
REMARK   83  A    between atoms: _198  and  _200
REMARK   84  A    between atoms: _200  and  _201
REMARK   85  A    between atoms: _200  and  _203
REMARK   86  A    between atoms: _203  and  _204
REMARK   87  A    between atoms: _204  and  _205
REMARK   88  A    between atoms: _207  and  _209
REMARK   89  A    between atoms: _209  and  _210
REMARK   90  A    between atoms: _209  and  _212
REMARK   91  A    between atoms: _212  and  _213
REMARK   92  A    between atoms: _215  and  _217
REMARK   93  A    between atoms: _217  and  _218
REMARK   94  A    between atoms: _221  and  _223
REMARK   95  A    between atoms: _223  and  _224
REMARK   96  A    between atoms: _223  and  _226
REMARK   97  A    between atoms: _228  and  _230
REMARK   98  A    between atoms: _230  and  _231
REMARK   99  A    between atoms: _230  and  _233
REMARK  100  A    between atoms: _233  and  _234
REMARK  101  A    between atoms: _234  and  _235
REMARK  102  A    between atoms: _235  and  _236
REMARK  103  A    between atoms: _245  and  _247
REMARK  104  A    between atoms: _247  and  _248
REMARK  105  A    between atoms: _247  and  _250
REMARK  106  A    between atoms: _250  and  _251
REMARK  107  A    between atoms: _251  and  _252
REMARK  108  A    between atoms: _255  and  _257
REMARK  109  A    between atoms: _257  and  _258
REMARK  110  A    between atoms: _257  and  _260
REMARK  111  A    between atoms: _260  and  _261
REMARK  112  A    between atoms: _264  and  _266
REMARK  113  A    between atoms: _266  and  _267
REMARK  114  A    between atoms: _270  and  _272
REMARK  115  A    between atoms: _272  and  _273
REMARK  116  A    between atoms: _272  and  _275
REMARK  117  A    between atoms: _275  and  _276
REMARK  118  A    between atoms: _279  and  _281
REMARK  119  A    between atoms: _281  and  _282
REMARK  120  A    between atoms: _281  and  _284
REMARK  121  A    between atoms: _284  and  _285
REMARK  122  A    between atoms: _288  and  _290
REMARK  123  A    between atoms: _290  and  _291
REMARK  124  A    between atoms: _290  and  _293
REMARK  125  A    between atoms: _293  and  _294
REMARK  126  A    between atoms: _297  and  _299
REMARK  127  A    between atoms: _299  and  _300
REMARK  128  A    between atoms: _299  and  _302
REMARK  129  A    between atoms: _302  and  _303
REMARK  130  A    between atoms: _308  and  _310
REMARK  131  A    between atoms: _310  and  _311
REMARK  132  A    between atoms: _310  and  _313
REMARK  133  A    between atoms: _316  and  _318
REMARK  134  A    between atoms: _318  and  _319
REMARK  135  A    between atoms: _318  and  _321
REMARK  136  A    between atoms: _321  and  _322
REMARK  137  A    between atoms: _325  and  _327
REMARK  138  A    between atoms: _327  and  _328
REMARK  139  A    between atoms: _327  and  _330
REMARK  140  A    between atoms: _330  and  _331
REMARK  141  A    between atoms: _333  and  _335
REMARK  142  A    between atoms: _335  and  _336
REMARK  143  A    between atoms: _335  and  _338
REMARK  144  A    between atoms: _338  and  _339
REMARK  145  A    between atoms: _342  and  _344
REMARK  146  A    between atoms: _344  and  _345
REMARK  147  A    between atoms: _344  and  _347
REMARK  148  A    between atoms: _347  and  _348
REMARK  149  A    between atoms: _351  and  _353
REMARK  150  A    between atoms: _353  and  _354
REMARK  151  A    between atoms: _353  and  _356
REMARK  152  A    between atoms: _356  and  _357
REMARK  153  A    between atoms: _360  and  _362
REMARK  154  A    between atoms: _362  and  _363
REMARK  155  A    between atoms: _362  and  _365
REMARK  156  A    between atoms: _365  and  _366
REMARK  157  A    between atoms: _372  and  _374
REMARK  158  A    between atoms: _374  and  _375
REMARK  159  A    between atoms: _374  and  _377
REMARK  160  A    between atoms: _377  and  _378
REMARK  161  A    between atoms: _381  and  _383
REMARK  162  A    between atoms: _383  and  _384
REMARK  163  A    between atoms: _383  and  _386
REMARK  164  A    between atoms: _386  and  _387
REMARK  165  A    between atoms: _392  and  _393
REMARK  166  A    between atoms: _395  and  _397
REMARK  167  A    between atoms: _397  and  _398
REMARK  168  A    between atoms: _401  and  _403
REMARK  169  A    between atoms: _403  and  _404
REMARK  170  A    between atoms: _403  and  _406
REMARK  171  A    between atoms: _406  and  _407
REMARK  172  A    between atoms: _407  and  _408
REMARK  173  A    between atoms: _411  and  _413
REMARK  174  A    between atoms: _413  and  _414
REMARK  175  A    between atoms: _413  and  _416
REMARK  176  A    between atoms: _416  and  _417
REMARK  177  A    between atoms: _422  and  _424
REMARK  178  A    between atoms: _424  and  _425
REMARK  179  A    between atoms: _424  and  _427
REMARK  180  A    between atoms: _427  and  _428
REMARK  181  A    between atoms: _431  and  _433
REMARK  182  A    between atoms: _433  and  _434
REMARK  183  A    between atoms: _433  and  _436
REMARK  184  A    between atoms: _436  and  _437
REMARK  185  A    between atoms: _440  and  _442
REMARK  186  A    between atoms: _442  and  _443
REMARK  187  A    between atoms: _442  and  _445
REMARK  188  A    between atoms: _445  and  _446
REMARK  189  A    between atoms: _456  and  _458
REMARK  190  A    between atoms: _458  and  _459
REMARK  191  A    between atoms: _458  and  _461
REMARK  192  A    between atoms: _461  and  _462
REMARK  193  A    between atoms: _467  and  _469
REMARK  194  A    between atoms: _469  and  _470
REMARK  195  A    between atoms: _469  and  _472
REMARK  196  A    between atoms: _472  and  _473
REMARK  197  A    between atoms: _476  and  _478
REMARK  198  A    between atoms: _478  and  _479
REMARK  199  A    between atoms: _478  and  _481
REMARK  200  A    between atoms: _481  and  _482
REMARK  201  A    between atoms: _482  and  _483
REMARK  202  A    between atoms: _483  and  _484
REMARK  203  A    between atoms: _484  and  _485
REMARK  204  A    between atoms: _489  and  _491
REMARK  205  A    between atoms: _491  and  _492
REMARK  206  A    between atoms: _494  and  _496
REMARK  207  A    between atoms: _496  and  _497
REMARK  208  A    between atoms: _496  and  _499
REMARK  209  A    between atoms: _499  and  _500
REMARK  210  A    between atoms: _503  and  _505
REMARK  211  A    between atoms: _505  and  _506
REMARK  212  A    between atoms: _505  and  _508
REMARK  213  A    between atoms: _508  and  _509
REMARK  214  A    between atoms: _514  and  _515
REMARK  215  A    between atoms: _517  and  _519
REMARK  216  A    between atoms: _519  and  _520
REMARK  217  A    between atoms: _519  and  _522
REMARK  218  A    between atoms: _522  and  _523
REMARK  219  A    between atoms: _526  and  _528
REMARK  220  A    between atoms: _528  and  _529
REMARK  221  A    between atoms: _528  and  _531
REMARK  222  A    between atoms: _534  and  _536
REMARK  223  A    between atoms: _536  and  _537
REMARK  224  A    between atoms: _536  and  _539
REMARK  225  A    between atoms: _539  and  _540
REMARK  226  A    between atoms: _543  and  _545
REMARK  227  A    between atoms: _545  and  _546
REMARK  228  A    between atoms: _545  and  _548
REMARK  229  A    between atoms: _548  and  _549
REMARK  230  A    between atoms: _554  and  _556
REMARK  231  A    between atoms: _556  and  _557
REMARK  232  A    between atoms: _556  and  _559
REMARK  233  A    between atoms: _559  and  _560
REMARK  234  A    between atoms: _560  and  _561
REMARK  235  A    between atoms: _561  and  _562
REMARK  236  A    between atoms: _571  and  _573
REMARK  237  A    between atoms: _573  and  _574
REMARK  238  A    between atoms: _573  and  _576
REMARK  239  A    between atoms: _576  and  _577
REMARK  240  A    between atoms: _580  and  _582
REMARK  241  A    between atoms: _582  and  _583
REMARK  242  A    between atoms: _582  and  _585
REMARK  243  A    between atoms: _585  and  _586
REMARK  244  A    between atoms: _589  and  _591
REMARK  245  A    between atoms: _591  and  _592
REMARK  246  A    between atoms: _591  and  _594
REMARK  247  A    between atoms: _594  and  _595
REMARK  248  A    between atoms: _595  and  _596
REMARK  249  A    between atoms: _596  and  _597
REMARK  250  A    between atoms: _597  and  _598
REMARK  251  A    between atoms: _603  and  _604
REMARK  252  A    between atoms: _609  and  _611
REMARK  253  A    between atoms: _611  and  _612
REMARK  254  A    between atoms: _615  and  _617
REMARK  255  A    between atoms: _617  and  _618
REMARK  256  A    between atoms: _617  and  _620
REMARK  257  A    between atoms: _620  and  _621
REMARK  258  A    between atoms: _626  and  _628
REMARK  259  A    between atoms: _628  and  _629
REMARK  260  A    between atoms: _628  and  _631
REMARK  261  A    between atoms: _631  and  _632
REMARK  262  A    between atoms: _635  and  _637
REMARK  263  A    between atoms: _637  and  _638
REMARK  264  A    between atoms: _637  and  _640
REMARK  265  A    between atoms: _640  and  _641
REMARK  266  A    between atoms: _644  and  _646
REMARK  267  A    between atoms: _646  and  _647
REMARK  268  A    between atoms: _646  and  _649
REMARK  269  A    between atoms: _652  and  _654
REMARK  270  A    between atoms: _654  and  _655
REMARK  271  A    between atoms: _654  and  _657
REMARK  272  A    between atoms: _657  and  _658
REMARK  273  A    between atoms: _658  and  _659
REMARK  274  A    between atoms: _659  and  _660
REMARK  275  A    between atoms: _660  and  _661
REMARK  276  A    between atoms: _665  and  _667
REMARK  277  A    between atoms: _667  and  _668
REMARK  278  A    between atoms: _667  and  _670
REMARK  279  A    between atoms: _670  and  _671
REMARK  280  A    between atoms: _674  and  _676
REMARK  281  A    between atoms: _676  and  _677
REMARK  282  A    between atoms: _680  and  _682
REMARK  283  A    between atoms: _682  and  _683
REMARK  284  A    between atoms: _682  and  _685
REMARK  285  A    between atoms: _685  and  _686
REMARK  286  A    between atoms: _689  and  _691
REMARK  287  A    between atoms: _691  and  _692
REMARK  288  A    between atoms: _691  and  _694
REMARK  289  A    between atoms: _694  and  _695
REMARK  290  A    between atoms: _695  and  _696
REMARK  291  A    between atoms: _698  and  _700
REMARK  292  A    between atoms: _700  and  _701
REMARK  293  A    between atoms: _703  and  _705
REMARK  294  A    between atoms: _705  and  _706
REMARK  295  A    between atoms: _705  and  _708
REMARK  296  A    between atoms: _708  and  _709
REMARK  297  A    between atoms: _715  and  _717
REMARK  298  A    between atoms: _717  and  _718
REMARK  299  A    between atoms: _721  and  _723
REMARK  300  A    between atoms: _723  and  _724
REMARK  301  A    between atoms: _723  and  _726
REMARK  302  A    between atoms: _726  and  _727
REMARK  303  A    between atoms: _727  and  _728
REMARK  304  A    between atoms: _728  and  _729
REMARK  305  A    between atoms: _738  and  _740
REMARK  306  A    between atoms: _740  and  _741
REMARK  307  A    between atoms: _740  and  _743
REMARK  308  A    between atoms: _743  and  _744
REMARK  309  A    between atoms: _744  and  _745
REMARK                            x       y       z     vdW  Elec       q    Type
REMARK                         _______ _______ _______ _____ _____    ______ ____
ROOT
ATOM      1  CA  ILE A   3      45.959  59.567 146.631  0.00  0.00    +0.149 C 
ENDROOT
BRANCH   1   4
ATOM      2  C   VAL A   2      47.446  58.403 148.182  0.00  0.00    +0.241 C 
ATOM      3  O   VAL A   2      48.055  59.427 148.432  0.00  0.00    -0.273 OA
ATOM      4  N   ILE A   3      46.439  58.362 147.309  0.00  0.00    -0.297 N 
ATOM      5  H   ILE A   3      45.983  57.450 147.105  0.00  0.00    +0.150 HD
BRANCH   2   6
ATOM      6  CA  VAL A   2      47.839  57.099 148.866  0.00  0.00    +0.148 C 
BRANCH   6   8
ATOM      7  C   ASN A   1      49.908  55.973 148.175  0.00  0.00    +0.239 C 
ATOM      8  N   VAL A   2      49.292  56.974 148.806  0.00  0.00    -0.297 N 
ATOM      9  H   VAL A   2      49.873  57.697 149.276  0.00  0.00    +0.150 HD
ATOM     10  O   ASN A   1      49.306  55.020 147.682  0.00  0.00    -0.274 OA
BRANCH   7  11
ATOM     11  CA  ASN A   1      51.426  56.047 148.056  0.00  0.00    +0.154 C 
BRANCH  11  12
ATOM     12  N   ASN A   1      52.122  57.092 148.855  0.00  0.00    -0.238 NA
ATOM     13  H   ASN A   1      52.330  56.886 149.853  0.00  0.00    +0.142 HD
ENDBRANCH  11  12
BRANCH  11  14
ATOM     14  CB  ASN A   1      52.026  54.660 148.333  0.00  0.00    +0.111 C 
BRANCH  14  15
ATOM     15  CG  ASN A   1      53.495  54.588 147.991  0.00  0.00    +0.221 C 
ATOM     16  OD1 ASN A   1      54.314  54.126 148.795  0.00  0.00    -0.275 OA
ATOM     17  ND2 ASN A   1      53.845  55.062 146.802  0.00  0.00    -0.329 N 
ATOM     18 HD21 ASN A   1      54.844  55.055 146.513  0.00  0.00    +0.145 HD
ATOM     19 HD22 ASN A   1      53.120  55.441 146.159  0.00  0.00    +0.145 HD
ENDBRANCH  14  15
ENDBRANCH  11  14
ENDBRANCH   7  11
ENDBRANCH   6   8
BRANCH   6  20
ATOM     20  CB  VAL A   2      47.352  57.097 150.321  0.00  0.00    +0.027 C 
ATOM     21  CG2 VAL A   2      47.767  55.775 151.019  0.00  0.00    +0.002 C 
ATOM     22  CG1 VAL A   2      45.835  57.299 150.397  0.00  0.00    +0.002 C 
ENDBRANCH   6  20
ENDBRANCH   2   6
ENDBRANCH   1   4
BRANCH   1  23
ATOM     23  C   ILE A   3      45.564  60.609 147.698  0.00  0.00    +0.241 C 
ATOM     24  O   ILE A   3      44.974  60.254 148.728  0.00  0.00    -0.273 OA
ATOM     25  N   SER A   4      45.890  61.870 147.430  0.00  0.00    -0.295 N 
ATOM     26  H   SER A   4      46.202  62.100 146.465  0.00  0.00    +0.150 HD
BRANCH  25  27
ATOM     27  CA  SER A   4      45.836  62.946 148.407  0.00  0.00    +0.178 C 
BRANCH  27  28
ATOM     28  C   SER A   4      44.760  63.972 148.030  0.00  0.00    +0.243 C 
ATOM     29  N   LEU A   5      43.825  64.239 148.947  0.00  0.00    -0.298 N 
ATOM     30  H   LEU A   5      43.792  63.657 149.808  0.00  0.00    +0.150 HD
ATOM     31  O   SER A   4      44.785  64.507 146.926  0.00  0.00    -0.273 OA
BRANCH  29  32
ATOM     32  CA  LEU A   5      42.845  65.315 148.792  0.00  0.00    +0.137 C 
BRANCH  32  33
ATOM     33  C   LEU A   5      43.521  66.667 149.011  0.00  0.00    +0.227 C 
ATOM     34  O   LEU A   5      44.096  66.895 150.062  0.00  0.00    -0.286 OA
ENDBRANCH  32  33
BRANCH  32  35
ATOM     35  CB  LEU A   5      41.708  65.138 149.804  0.00  0.00    +0.028 C 
BRANCH  35  36
ATOM     36  CG  LEU A   5      40.553  66.140 149.820  0.00  0.00    +0.002 C 
ATOM     37  CD2 LEU A   5      39.526  65.748 150.860  0.00  0.00    +0.000 C 
ATOM     38  CD1 LEU A   5      39.917  66.244 148.440  0.00  0.00    +0.000 C 
ENDBRANCH  35  36
ENDBRANCH  32  35
ENDBRANCH  29  32
ENDBRANCH  27  28
BRANCH  27  39
ATOM     39  CB  SER A   4      47.228  63.615 148.480  0.00  0.00    +0.166 C 
BRANCH  39  40
ATOM     40  OG  SER A   4      47.189  64.881 149.112  0.00  0.00    -0.380 OA
ATOM     41  H   SER A   4      48.101  65.266 149.134  0.00  0.00    +0.211 HD
ENDBRANCH  39  40
ENDBRANCH  27  39
ENDBRANCH  25  27
ENDBRANCH   1  23
BRANCH   1  42
ATOM     42  CB  ILE A   3      44.776  59.248 145.683  0.00  0.00    +0.027 C 
ATOM     43  CG2 ILE A   3      43.506  58.876 146.465  0.00  0.00    +0.002 C 
BRANCH  42  44
ATOM     44  CG1 ILE A   3      44.496  60.412 144.725  0.00  0.00    +0.002 C 
ATOM     45  CD1 ILE A   3      45.452  60.476 143.576  0.00  0.00    +0.000 C 
ENDBRANCH  42  44
ENDBRANCH   1  42
TORSDOF 19
REMARK  Name = ../refined-set-2016/4f6w/4f6w_pocket.pdb
REMARK  309 active torsions:
REMARK  status: ('A' for Active; 'I' for Inactive)
REMARK    1  A    between atoms: _1  and  _3
REMARK    2  A    between atoms: _3  and  _4
REMARK    3  A    between atoms: _3  and  _6
REMARK    4  A    between atoms: _8  and  _10
REMARK    5  A    between atoms: _10  and  _11
REMARK    6  A    between atoms: _10  and  _13
REMARK    7  A    between atoms: _13  and  _14
REMARK    8  A    between atoms: _14  and  _15
REMARK    9  A    between atoms: _15  and  _16
REMARK   10  A    between atoms: _16  and  _17
REMARK   11  A    between atoms: _21  and  _23
REMARK   12  A    between atoms: _23  and  _24
REMARK   13  A    between atoms: _23  and  _26
REMARK   14  A    between atoms: _29  and  _31
REMARK   15  A    between atoms: _31  and  _32
REMARK   16  A    between atoms: _34  and  _36
REMARK   17  A    between atoms: _36  and  _37
REMARK   18  A    between atoms: _36  and  _39
REMARK   19  A    between atoms: _39  and  _40
REMARK   20  A    between atoms: _40  and  _41
REMARK   21  A    between atoms: _41  and  _42
REMARK   22  A    between atoms: _51  and  _53
REMARK   23  A    between atoms: _53  and  _54
REMARK   24  A    between atoms: _56  and  _58
REMARK   25  A    between atoms: _58  and  _59
REMARK   26  A    between atoms: _58  and  _61
REMARK   27  A    between atoms: _61  and  _62
REMARK   28  A    between atoms: _67  and  _68
REMARK   29  A    between atoms: _70  and  _72
REMARK   30  A    between atoms: _72  and  _73
REMARK   31  A    between atoms: _75  and  _77
REMARK   32  A    between atoms: _77  and  _78
REMARK   33  A    between atoms: _77  and  _80
REMARK   34  A    between atoms: _80  and  _81
REMARK   35  A    between atoms: _86  and  _88
REMARK   36  A    between atoms: _88  and  _89
REMARK   37  A    between atoms: _88  and  _91
REMARK   38  A    between atoms: _94  and  _96
REMARK   39  A    between atoms: _96  and  _97
REMARK   40  A    between atoms: _96  and  _99
REMARK   41  A    between atoms: _99  and  _100
REMARK   42  A    between atoms: _105  and  _106
REMARK   43  A    between atoms: _108  and  _110
REMARK   44  A    between atoms: _110  and  _111
REMARK   45  A    between atoms: _110  and  _113
REMARK   46  A    between atoms: _113  and  _114
REMARK   47  A    between atoms: _114  and  _115
REMARK   48  A    between atoms: _115  and  _116
REMARK   49  A    between atoms: _116  and  _117
REMARK   50  A    between atoms: _121  and  _123
REMARK   51  A    between atoms: _123  and  _124
REMARK   52  A    between atoms: _127  and  _129
REMARK   53  A    between atoms: _129  and  _130
REMARK   54  A    between atoms: _129  and  _132
REMARK   55  A    between atoms: _132  and  _133
REMARK   56  A    between atoms: _138  and  _139
REMARK   57  A    between atoms: _141  and  _143
REMARK   58  A    between atoms: _143  and  _144
REMARK   59  A    between atoms: _147  and  _149
REMARK   60  A    between atoms: _149  and  _150
REMARK   61  A    between atoms: _149  and  _152
REMARK   62  A    between atoms: _152  and  _153
REMARK   63  A    between atoms: _156  and  _158
REMARK   64  A    between atoms: _158  and  _159
REMARK   65  A    between atoms: _158  and  _161
REMARK   66  A    between atoms: _161  and  _162
REMARK   67  A    between atoms: _162  and  _163
REMARK   68  A    between atoms: _163  and  _164
REMARK   69  A    between atoms: _164  and  _165
REMARK   70  A    between atoms: _169  and  _171
REMARK   71  A    between atoms: _171  and  _172
REMARK   72  A    between atoms: _171  and  _174
REMARK   73  A    between atoms: _174  and  _175
REMARK   74  A    between atoms: _175  and  _176
REMARK   75  A    between atoms: _181  and  _183
REMARK   76  A    between atoms: _183  and  _184
REMARK   77  A    between atoms: _183  and  _186
REMARK   78  A    between atoms: _186  and  _187
REMARK   79  A    between atoms: _190  and  _192
REMARK   80  A    between atoms: _192  and  _193
REMARK   81  A    between atoms: _192  and  _195
REMARK   82  A    between atoms: _195  and  _196
REMARK   83  A    between atoms: _198  and  _200
REMARK   84  A    between atoms: _200  and  _201
REMARK   85  A    between atoms: _200  and  _203
REMARK   86  A    between atoms: _203  and  _204
REMARK   87  A    between atoms: _204  and  _205
REMARK   88  A    between atoms: _207  and  _209
REMARK   89  A    between atoms: _209  and  _210
REMARK   90  A    between atoms: _209  and  _212
REMARK   91  A    between atoms: _212  and  _213
REMARK   92  A    between atoms: _215  and  _217
REMARK   93  A    between atoms: _217  and  _218
REMARK   94  A    between atoms: _221  and  _223
REMARK   95  A    between atoms: _223  and  _224
REMARK   96  A    between atoms: _223  and  _226
REMARK   97  A    between atoms: _228  and  _230
REMARK   98  A    between atoms: _230  and  _231
REMARK   99  A    between atoms: _230  and  _233
REMARK  100  A    between atoms: _233  and  _234
REMARK  101  A    between atoms: _234  and  _235
REMARK  102  A    between atoms: _235  and  _236
REMARK  103  A    between atoms: _245  and  _247
REMARK  104  A    between atoms: _247  and  _248
REMARK  105  A    between atoms: _247  and  _250
REMARK  106  A    between atoms: _250  and  _251
REMARK  107  A    between atoms: _251  and  _252
REMARK  108  A    between atoms: _255  and  _257
REMARK  109  A    between atoms: _257  and  _258
REMARK  110  A    between atoms: _257  and  _260
REMARK  111  A    between atoms: _260  and  _261
REMARK  112  A    between atoms: _264  and  _266
REMARK  113  A    between atoms: _266  and  _267
REMARK  114  A    between atoms: _270  and  _272
REMARK  115  A    between atoms: _272  and  _273
REMARK  116  A    between atoms: _272  and  _275
REMARK  117  A    between atoms: _275  and  _276
REMARK  118  A    between atoms: _279  and  _281
REMARK  119  A    between atoms: _281  and  _282
REMARK  120  A    between atoms: _281  and  _284
REMARK  121  A    between atoms: _284  and  _285
REMARK  122  A    between atoms: _288  and  _290
REMARK  123  A    between atoms: _290  and  _291
REMARK  124  A    between atoms: _290  and  _293
REMARK  125  A    between atoms: _293  and  _294
REMARK  126  A    between atoms: _297  and  _299
REMARK  127  A    between atoms: _299  and  _300
REMARK  128  A    between atoms: _299  and  _302
REMARK  129  A    between atoms: _302  and  _303
REMARK  130  A    between atoms: _308  and  _310
REMARK  131  A    between atoms: _310  and  _311
REMARK  132  A    between atoms: _310  and  _313
REMARK  133  A    between atoms: _316  and  _318
REMARK  134  A    between atoms: _318  and  _319
REMARK  135  A    between atoms: _318  and  _321
REMARK  136  A    between atoms: _321  and  _322
REMARK  137  A    between atoms: _325  and  _327
REMARK  138  A    between atoms: _327  and  _328
REMARK  139  A    between atoms: _327  and  _330
REMARK  140  A    between atoms: _330  and  _331
REMARK  141  A    between atoms: _333  and  _335
REMARK  142  A    between atoms: _335  and  _336
REMARK  143  A    between atoms: _335  and  _338
REMARK  144  A    between atoms: _338  and  _339
REMARK  145  A    between atoms: _342  and  _344
REMARK  146  A    between atoms: _344  and  _345
REMARK  147  A    between atoms: _344  and  _347
REMARK  148  A    between atoms: _347  and  _348
REMARK  149  A    between atoms: _351  and  _353
REMARK  150  A    between atoms: _353  and  _354
REMARK  151  A    between atoms: _353  and  _356
REMARK  152  A    between atoms: _356  and  _357
REMARK  153  A    between atoms: _360  and  _362
REMARK  154  A    between atoms: _362  and  _363
REMARK  155  A    between atoms: _362  and  _365
REMARK  156  A    between atoms: _365  and  _366
REMARK  157  A    between atoms: _372  and  _374
REMARK  158  A    between atoms: _374  and  _375
REMARK  159  A    between atoms: _374  and  _377
REMARK  160  A    between atoms: _377  and  _378
REMARK  161  A    between atoms: _381  and  _383
REMARK  162  A    between atoms: _383  and  _384
REMARK  163  A    between atoms: _383  and  _386
REMARK  164  A    between atoms: _386  and  _387
REMARK  165  A    between atoms: _392  and  _393
REMARK  166  A    between atoms: _395  and  _397
REMARK  167  A    between atoms: _397  and  _398
REMARK  168  A    between atoms: _401  and  _403
REMARK  169  A    between atoms: _403  and  _404
REMARK  170  A    between atoms: _403  and  _406
REMARK  171  A    between atoms: _406  and  _407
REMARK  172  A    between atoms: _407  and  _408
REMARK  173  A    between atoms: _411  and  _413
REMARK  174  A    between atoms: _413  and  _414
REMARK  175  A    between atoms: _413  and  _416
REMARK  176  A    between atoms: _416  and  _417
REMARK  177  A    between atoms: _422  and  _424
REMARK  178  A    between atoms: _424  and  _425
REMARK  179  A    between atoms: _424  and  _427
REMARK  180  A    between atoms: _427  and  _428
REMARK  181  A    between atoms: _431  and  _433
REMARK  182  A    between atoms: _433  and  _434
REMARK  183  A    between atoms: _433  and  _436
REMARK  184  A    between atoms: _436  and  _437
REMARK  185  A    between atoms: _440  and  _442
REMARK  186  A    between atoms: _442  and  _443
REMARK  187  A    between atoms: _442  and  _445
REMARK  188  A    between atoms: _445  and  _446
REMARK  189  A    between atoms: _456  and  _458
REMARK  190  A    between atoms: _458  and  _459
REMARK  191  A    between atoms: _458  and  _461
REMARK  192  A    between atoms: _461  and  _462
REMARK  193  A    between atoms: _467  and  _469
REMARK  194  A    between atoms: _469  and  _470
REMARK  195  A    between atoms: _469  and  _472
REMARK  196  A    between atoms: _472  and  _473
REMARK  197  A    between atoms: _476  and  _478
REMARK  198  A    between atoms: _478  and  _479
REMARK  199  A    between atoms: _478  and  _481
REMARK  200  A    between atoms: _481  and  _482
REMARK  201  A    between atoms: _482  and  _483
REMARK  202  A    between atoms: _483  and  _484
REMARK  203  A    between atoms: _484  and  _485
REMARK  204  A    between atoms: _489  and  _491
REMARK  205  A    between atoms: _491  and  _492
REMARK  206  A    between atoms: _494  and  _496
REMARK  207  A    between atoms: _496  and  _497
REMARK  208  A    between atoms: _496  and  _499
REMARK  209  A    between atoms: _499  and  _500
REMARK  210  A    between atoms: _503  and  _505
REMARK  211  A    between atoms: _505  and  _506
REMARK  212  A    between atoms: _505  and  _508
REMARK  213  A    between atoms: _508  and  _509
REMARK  214  A    between atoms: _514  and  _515
REMARK  215  A    between atoms: _517  and  _519
REMARK  216  A    between atoms: _519  and  _520
REMARK  217  A    between atoms: _519  and  _522
REMARK  218  A    between atoms: _522  and  _523
REMARK  219  A    between atoms: _526  and  _528
REMARK  220  A    between atoms: _528  and  _529
REMARK  221  A    between atoms: _528  and  _531
REMARK  222  A    between atoms: _534  and  _536
REMARK  223  A    between atoms: _536  and  _537
REMARK  224  A    between atoms: _536  and  _539
REMARK  225  A    between atoms: _539  and  _540
REMARK  226  A    between atoms: _543  and  _545
REMARK  227  A    between atoms: _545  and  _546
REMARK  228  A    between atoms: _545  and  _548
REMARK  229  A    between atoms: _548  and  _549
REMARK  230  A    between atoms: _554  and  _556
REMARK  231  A    between atoms: _556  and  _557
REMARK  232  A    between atoms: _556  and  _559
REMARK  233  A    between atoms: _559  and  _560
REMARK  234  A    between atoms: _560  and  _561
REMARK  235  A    between atoms: _561  and  _562
REMARK  236  A    between atoms: _571  and  _573
REMARK  237  A    between atoms: _573  and  _574
REMARK  238  A    between atoms: _573  and  _576
REMARK  239  A    between atoms: _576  and  _577
REMARK  240  A    between atoms: _580  and  _582
REMARK  241  A    between atoms: _582  and  _583
REMARK  242  A    between atoms: _582  and  _585
REMARK  243  A    between atoms: _585  and  _586
REMARK  244  A    between atoms: _589  and  _591
REMARK  245  A    between atoms: _591  and  _592
REMARK  246  A    between atoms: _591  and  _594
REMARK  247  A    between atoms: _594  and  _595
REMARK  248  A    between atoms: _595  and  _596
REMARK  249  A    between atoms: _596  and  _597
REMARK  250  A    between atoms: _597  and  _598
REMARK  251  A    between atoms: _603  and  _604
REMARK  252  A    between atoms: _609  and  _611
REMARK  253  A    between atoms: _611  and  _612
REMARK  254  A    between atoms: _615  and  _617
REMARK  255  A    between atoms: _617  and  _618
REMARK  256  A    between atoms: _617  and  _620
REMARK  257  A    between atoms: _620  and  _621
REMARK  258  A    between atoms: _626  and  _628
REMARK  259  A    between atoms: _628  and  _629
REMARK  260  A    between atoms: _628  and  _631
REMARK  261  A    between atoms: _631  and  _632
REMARK  262  A    between atoms: _635  and  _637
REMARK  263  A    between atoms: _637  and  _638
REMARK  264  A    between atoms: _637  and  _640
REMARK  265  A    between atoms: _640  and  _641
REMARK  266  A    between atoms: _644  and  _646
REMARK  267  A    between atoms: _646  and  _647
REMARK  268  A    between atoms: _646  and  _649
REMARK  269  A    between atoms: _652  and  _654
REMARK  270  A    between atoms: _654  and  _655
REMARK  271  A    between atoms: _654  and  _657
REMARK  272  A    between atoms: _657  and  _658
REMARK  273  A    between atoms: _658  and  _659
REMARK  274  A    between atoms: _659  and  _660
REMARK  275  A    between atoms: _660  and  _661
REMARK  276  A    between atoms: _665  and  _667
REMARK  277  A    between atoms: _667  and  _668
REMARK  278  A    between atoms: _667  and  _670
REMARK  279  A    between atoms: _670  and  _671
REMARK  280  A    between atoms: _674  and  _676
REMARK  281  A    between atoms: _676  and  _677
REMARK  282  A    between atoms: _680  and  _682
REMARK  283  A    between atoms: _682  and  _683
REMARK  284  A    between atoms: _682  and  _685
REMARK  285  A    between atoms: _685  and  _686
REMARK  286  A    between atoms: _689  and  _691
REMARK  287  A    between atoms: _691  and  _692
REMARK  288  A    between atoms: _691  and  _694
REMARK  289  A    between atoms: _694  and  _695
REMARK  290  A    between atoms: _695  and  _696
REMARK  291  A    between atoms: _698  and  _700
REMARK  292  A    between atoms: _700  and  _701
REMARK  293  A    between atoms: _703  and  _705
REMARK  294  A    between atoms: _705  and  _706
REMARK  295  A    between atoms: _705  and  _708
REMARK  296  A    between atoms: _708  and  _709
REMARK  297  A    between atoms: _715  and  _717
REMARK  298  A    between atoms: _717  and  _718
REMARK  299  A    between atoms: _721  and  _723
REMARK  300  A    between atoms: _723  and  _724
REMARK  301  A    between atoms: _723  and  _726
REMARK  302  A    between atoms: _726  and  _727
REMARK  303  A    between atoms: _727  and  _728
REMARK  304  A    between atoms: _728  and  _729
REMARK  305  A    between atoms: _738  and  _740
REMARK  306  A    between atoms: _740  and  _741
REMARK  307  A    between atoms: _740  and  _743
REMARK  308  A    between atoms: _743  and  _744
REMARK  309  A    between atoms: _744  and  _745
REMARK                            x       y       z     vdW  Elec       q    Type
REMARK                         _______ _______ _______ _____ _____    ______ ____
ROOT
ATOM      1  CA  GLU A   7      48.088  60.044 134.381  0.00  0.00    +0.149 C 
ENDROOT
BRANCH   1   2
ATOM      2  C   GLU A   7      47.840  58.574 134.052  0.00  0.00    +0.241 C 
ATOM      3  N   HIS A   8      48.386  57.672 134.863  0.00  0.00    -0.297 N 
ATOM      4  H   HIS A   8      48.838  57.992 135.743  0.00  0.00    +0.150 HD
ATOM      5  O   GLU A   7      47.177  58.270 133.064  0.00  0.00    -0.273 OA
BRANCH   3   6
ATOM      6  CA  HIS A   8      48.369  56.242 134.553  0.00  0.00    +0.155 C 
BRANCH   6   7
ATOM      7  C   HIS A   8      47.730  55.421 135.669  0.00  0.00    +0.241 C 
ATOM      8  O   HIS A   8      47.426  55.930 136.755  0.00  0.00    -0.273 OA
ATOM      9  N   ASP A   9      47.512  54.147 135.364  0.00  0.00    -0.297 N 
ATOM     10  H   ASP A   9      47.741  53.823 134.403  0.00  0.00    +0.150 HD
BRANCH   9  11
ATOM     11  CA  ASP A   9      46.972  53.189 136.301  0.00  0.00    +0.160 C 
BRANCH  11  12
ATOM     12  C   ASP A   9      47.260  51.774 135.805  0.00  0.00    +0.241 C 
ATOM     13  N   LEU A  10      47.176  50.810 136.718  0.00  0.00    -0.297 N 
ATOM     14  H   LEU A  10      46.837  51.052 137.671  0.00  0.00    +0.150 HD
ATOM     15  O   ASP A   9      47.530  51.573 134.625  0.00  0.00    -0.273 OA
BRANCH  13  16
ATOM     16  CA  LEU A  10      47.543  49.420 136.432  0.00  0.00    +0.149 C 
BRANCH  16  17
ATOM     17  C   LEU A  10      46.621  48.718 135.449  0.00  0.00    +0.241 C 
ATOM     18  N   TRP A  11      45.374  49.165 135.341  0.00  0.00    -0.297 N 
ATOM     19  H   TRP A  11      45.064  49.957 135.939  0.00  0.00    +0.150 HD
ATOM     20  O   LEU A  10      47.046  47.782 134.790  0.00  0.00    -0.273 OA
BRANCH  18  21
ATOM     21  CA  TRP A  11      44.427  48.566 134.397  0.00  0.00    +0.153 C 
BRANCH  21  22
ATOM     22  C   TRP A  11      44.863  48.827 132.960  0.00  0.00    +0.241 C 
ATOM     23  N   HIS A  12      45.170  50.092 132.642  0.00  0.00    -0.297 N 
ATOM     24  H   HIS A  12      45.030  50.835 133.357  0.00  0.00    +0.150 HD
ATOM     25  O   TRP A  11      44.915  47.887 132.168  0.00  0.00    -0.273 OA
BRANCH  23  26
ATOM     26  CA  HIS A  12      45.697  50.472 131.321  0.00  0.00    +0.155 C 
BRANCH  26  27
ATOM     27  C   HIS A  12      47.115  49.947 131.091  0.00  0.00    +0.241 C 
ATOM     28  N   ILE A  13      47.968  50.032 132.108  0.00  0.00    -0.298 N 
ATOM     29  H   ILE A  13      47.665  50.483 132.995  0.00  0.00    +0.150 HD
ATOM     30  O   HIS A  12      47.431  49.491 129.998  0.00  0.00    -0.273 OA
BRANCH  28  31
ATOM     31  CA  ILE A  13      49.330  49.499 131.998  0.00  0.00    +0.137 C 
BRANCH  31  32
ATOM     32  CB  ILE A  13      50.159  49.814 133.251  0.00  0.00    +0.026 C 
ATOM     33  CG2 ILE A  13      51.404  48.927 133.322  0.00  0.00    +0.002 C 
BRANCH  32  34
ATOM     34  CG1 ILE A  13      50.541  51.300 133.239  0.00  0.00    +0.002 C 
ATOM     35  CD1 ILE A  13      51.266  51.768 134.490  0.00  0.00    +0.000 C 
ENDBRANCH  32  34
ENDBRANCH  31  32
BRANCH  31  36
ATOM     36  C   ILE A  13      49.347  47.994 131.671  0.00  0.00    +0.227 C 
ATOM     37  O   ILE A  13      50.027  47.589 130.752  0.00  0.00    -0.286 OA
ENDBRANCH  31  36
ENDBRANCH  28  31
ENDBRANCH  26  27
BRANCH  26  38
ATOM     38  CB  HIS A  12      45.691  51.990 131.116  0.00  0.00    +0.076 C 
BRANCH  38  39
ATOM     39  CG  HIS A  12      44.322  52.574 130.978  0.00  0.00    +0.082 A 
ATOM     40  ND1 HIS A  12      43.647  53.147 132.034  0.00  0.00    -0.227 NA
ATOM     41  CE1 HIS A  12      42.466  53.571 131.618  0.00  0.00    +0.199 A 
ATOM     42  NE2 HIS A  12      42.346  53.284 130.336  0.00  0.00    -0.221 NA
ATOM     43  CD2 HIS A  12      43.496  52.666 129.909  0.00  0.00    +0.115 A 
ENDBRANCH  38  39
ENDBRANCH  26  38
ENDBRANCH  23  26
ENDBRANCH  21  22
BRANCH  21  44
ATOM     44  CB  TRP A  11      43.024  49.109 134.631  0.00  0.00    +0.057 C 
BRANCH  44  45
ATOM     45  CG  TRP A  11      41.961  48.424 133.873  0.00  0.00    -0.002 A 
ATOM     46  CD1 TRP A  11      41.257  47.329 134.270  0.00  0.00    +0.068 A 
ATOM     47  NE1 TRP A  11      40.336  46.993 133.326  0.00  0.00    -0.352 N 
ATOM     48  HE1 TRP A  11      39.675  46.192 133.386  0.00  0.00    +0.166 HD
ATOM     49  CE2 TRP A  11      40.419  47.878 132.284  0.00  0.00    +0.056 A 
ATOM     50  CZ2 TRP A  11      39.686  47.942 131.093  0.00  0.00    +0.017 A 
ATOM     51  CH2 TRP A  11      39.988  48.961 130.214  0.00  0.00    +0.001 A 
ATOM     52  CZ3 TRP A  11      41.001  49.903 130.501  0.00  0.00    +0.000 A 
ATOM     53  CE3 TRP A  11      41.724  49.834 131.695  0.00  0.00    +0.001 A 
ATOM     54  CD2 TRP A  11      41.430  48.807 132.604  0.00  0.00    +0.013 A 
ENDBRANCH  44  45
ENDBRANCH  21  44
ENDBRANCH  18  21
ENDBRANCH  16  17
BRANCH  16  55
ATOM     55  CB  LEU A  10      47.654  48.592 137.727  0.00  0.00    +0.029 C 
BRANCH  55  56
ATOM     56  CG  LEU A  10      49.071  48.409 138.252  0.00  0.00    +0.002 C 
ATOM     57  CD2 LEU A  10      49.053  47.700 139.592  0.00  0.00    +0.000 C 
ATOM     58  CD1 LEU A  10      49.784  49.746 138.345  0.00  0.00    +0.000 C 
ENDBRANCH  55  56
ENDBRANCH  16  55
ENDBRANCH  13  16
ENDBRANCH  11  12
BRANCH  11  59
ATOM     59  CB  ASP A   9      45.468  53.407 136.511  0.00  0.00    +0.143 C 
BRANCH  59  60
ATOM     60  CG  ASP A   9      44.661  53.203 135.252  0.00  0.00    +0.367 C 
ATOM     61  OD2 ASP A   9      44.547  52.032 134.821  0.00  0.00    -0.246 OA
ATOM     62  OD1 ASP A   9      44.125  54.200 134.705  0.00  0.00    -0.246 OA
ENDBRANCH  59  60
ENDBRANCH  11  59
ENDBRANCH   9  11
ENDBRANCH   6   7
BRANCH   6  63
ATOM     63  CB  HIS A   8      49.798  55.748 134.258  0.00  0.00    +0.076 C 
BRANCH  63  64
ATOM     64  CG  HIS A   8      50.500  56.541 133.199  0.00  0.00    +0.082 A 
ATOM     65  CD2 HIS A   8      51.492  57.458 133.280  0.00  0.00    +0.115 A 
ATOM     66  NE2 HIS A   8      51.749  57.893 132.001  0.00  0.00    -0.221 NA
ATOM     67  CE1 HIS A   8      50.940  57.267 131.166  0.00  0.00    +0.199 A 
ATOM     68  ND1 HIS A   8      50.178  56.444 131.864  0.00  0.00    -0.227 NA
ENDBRANCH  63  64
ENDBRANCH   6  63
ENDBRANCH   3   6
ENDBRANCH   1   2
BRANCH   1  71
ATOM     69  C   ALA A   6      47.324  60.128 136.715  0.00  0.00    +0.241 C 
ATOM     70  O   ALA A   6      46.185  59.719 136.445  0.00  0.00    -0.273 OA
ATOM     71  N   GLU A   7      48.277  60.292 135.805  0.00  0.00    -0.297 N 
ATOM     72  H   GLU A   7      49.212  60.616 136.127  0.00  0.00    +0.150 HD
BRANCH  69  73
ATOM     73  CA  ALA A   6      47.716  60.496 138.141  0.00  0.00    +0.149 C 
ATOM     74  CB  ALA A   6      47.536  59.311 139.093  0.00  0.00    +0.031 C 
BRANCH  73  76
ATOM     75  C   TYR A   5      47.382  62.884 138.560  0.00  0.00    +0.241 C 
ATOM     76  N   ALA A   6      46.911  61.640 138.572  0.00  0.00    -0.297 N 
ATOM     77  H   ALA A   6      45.938  61.475 138.899  0.00  0.00    +0.150 HD
ATOM     78  O   TYR A   5      48.546  63.157 138.273  0.00  0.00    -0.273 OA
BRANCH  75  79
ATOM     79  CA  TYR A   5      46.394  63.995 138.883  0.00  0.00    +0.153 C 
BRANCH  79  82
ATOM     80  C   ASP A   4      46.093  64.190 141.284  0.00  0.00    +0.241 C 
ATOM     81  O   ASP A   4      45.170  63.379 141.271  0.00  0.00    -0.273 OA
ATOM     82  N   TYR A   5      46.688  64.620 140.174  0.00  0.00    -0.297 N 
ATOM     83  H   TYR A   5      47.367  65.406 140.224  0.00  0.00    +0.150 HD
BRANCH  80  84
ATOM     84  CA  ASP A   4      46.607  64.718 142.623  0.00  0.00    +0.160 C 
BRANCH  84  86
ATOM     85  C   PHE A   3      44.423  65.739 143.135  0.00  0.00    +0.241 C 
ATOM     86  N   ASP A   4      45.477  65.011 143.502  0.00  0.00    -0.297 N 
ATOM     87  H   ASP A   4      45.497  64.630 144.469  0.00  0.00    +0.150 HD
ATOM     88  O   PHE A   3      44.416  66.502 142.168  0.00  0.00    -0.273 OA
BRANCH  85  89
ATOM     89  CA  PHE A   3      43.192  65.543 143.995  0.00  0.00    +0.153 C 
BRANCH  89  92
ATOM     90  C   LEU A   2      41.558  67.297 144.587  0.00  0.00    +0.241 C 
ATOM     91  O   LEU A   2      41.880  67.309 145.773  0.00  0.00    -0.273 OA
ATOM     92  N   PHE A   3      42.133  66.509 143.672  0.00  0.00    -0.297 N 
ATOM     93  H   PHE A   3      41.815  66.584 142.685  0.00  0.00    +0.150 HD
BRANCH  90  94
ATOM     94  CA  LEU A   2      40.441  68.215 144.100  0.00  0.00    +0.149 C 
BRANCH  94  96
ATOM     95  C   LEU A   1      38.186  67.350 144.585  0.00  0.00    +0.238 C 
ATOM     96  N   LEU A   2      39.272  68.022 144.974  0.00  0.00    -0.297 N 
ATOM     97  H   LEU A   2      39.293  68.425 145.932  0.00  0.00    +0.150 HD
ATOM     98  O   LEU A   1      38.080  66.807 143.479  0.00  0.00    -0.274 OA
BRANCH  95  99
ATOM     99  CA  LEU A   1      37.038  67.283 145.571  0.00  0.00    +0.145 C 
BRANCH  99 100
ATOM    100  N   LEU A   1      35.760  67.639 144.918  0.00  0.00    -0.238 NA
ATOM    101  H   LEU A   1      35.452  67.082 144.096  0.00  0.00    +0.142 HD
ENDBRANCH  99 100
BRANCH  99 102
ATOM    102  CB  LEU A   1      36.965  65.875 146.136  0.00  0.00    +0.026 C 
BRANCH 102 103
ATOM    103  CG  LEU A   1      35.772  65.543 147.030  0.00  0.00    +0.002 C 
ATOM    104  CD2 LEU A   1      35.652  66.519 148.181  0.00  0.00    +0.000 C 
ATOM    105  CD1 LEU A   1      35.950  64.112 147.526  0.00  0.00    +0.000 C 
ENDBRANCH 102 103
ENDBRANCH  99 102
ENDBRANCH  95  99
ENDBRANCH  94  96
BRANCH  94 106
ATOM    106  CB  LEU A   2      40.904  69.677 144.138  0.00  0.00    +0.029 C 
BRANCH 106 107
ATOM    107  CG  LEU A   2      42.040  70.132 143.203  0.00  0.00    +0.002 C 
ATOM    108  CD2 LEU A   2      42.763  71.369 143.777  0.00  0.00    +0.000 C 
ATOM    109  CD1 LEU A   2      41.539  70.424 141.783  0.00  0.00    +0.000 C 
ENDBRANCH 106 107
ENDBRANCH  94 106
ENDBRANCH  90  94
ENDBRANCH  89  92
BRANCH  89 110
ATOM    110  CB  PHE A   3      42.705  64.107 143.759  0.00  0.00    +0.055 C 
BRANCH 110 111
ATOM    111  CG  PHE A   3      41.606  63.659 144.684  0.00  0.00    -0.020 A 
ATOM    112  CD2 PHE A   3      41.902  63.034 145.882  0.00  0.00    -0.004 A 
ATOM    113  CE2 PHE A   3      40.875  62.610 146.740  0.00  0.00    -0.000 A 
ATOM    114  CZ  PHE A   3      39.547  62.781 146.367  0.00  0.00    -0.000 A 
ATOM    115  CE1 PHE A   3      39.247  63.381 145.164  0.00  0.00    -0.000 A 
ATOM    116  CD1 PHE A   3      40.271  63.828 144.333  0.00  0.00    -0.004 A 
ENDBRANCH 110 111
ENDBRANCH  89 110
ENDBRANCH  85  89
ENDBRANCH  84  86
BRANCH  84 117
ATOM    117  CB  ASP A   4      47.446  63.559 143.195  0.00  0.00    +0.143 C 
BRANCH 117 118
ATOM    118  CG  ASP A   4      48.089  63.862 144.534  0.00  0.00    +0.367 C 
ATOM    119  OD2 ASP A   4      48.114  62.924 145.372  0.00  0.00    -0.246 OA
ATOM    120  OD1 ASP A   4      48.593  64.995 144.721  0.00  0.00    -0.246 OA
ENDBRANCH 117 118
ENDBRANCH  84 117
ENDBRANCH  80  84
ENDBRANCH  79  82
BRANCH  79 121
ATOM    121  CB  TYR A   5      46.402  65.009 137.740  0.00  0.00    +0.055 C 
BRANCH 121 122
ATOM    122  CG  TYR A   5      45.925  64.382 136.448  0.00  0.00    -0.020 A 
ATOM    123  CD2 TYR A   5      44.563  64.158 136.222  0.00  0.00    -0.001 A 
ATOM    124  CE2 TYR A   5      44.112  63.557 135.048  0.00  0.00    +0.036 A 
ATOM    125  CZ  TYR A   5      45.035  63.170 134.090  0.00  0.00    +0.134 A 
ATOM    126  CE1 TYR A   5      46.395  63.375 134.305  0.00  0.00    +0.036 A 
ATOM    127  CD1 TYR A   5      46.828  63.969 135.479  0.00  0.00    -0.001 A 
BRANCH 125 128
ATOM    128  OH  TYR A   5      44.615  62.594 132.911  0.00  0.00    -0.506 OA
ATOM    129  HH  TYR A   5      43.628  62.519 132.915  0.00  0.00    +0.292 HD
ENDBRANCH 125 128
ENDBRANCH 121 122
ENDBRANCH  79 121
ENDBRANCH  75  79
ENDBRANCH  73  76
ENDBRANCH  69  73
ENDBRANCH   1  71
BRANCH   1 130
ATOM    130  CB  GLU A   7      49.330  60.519 133.604  0.00  0.00    +0.041 C 
BRANCH 130 131
ATOM    131  CG  GLU A   7      49.157  60.601 132.099  0.00  0.00    +0.116 C 
BRANCH 131 132
ATOM    132  CD  GLU A   7      48.393  61.824 131.677  0.00  0.00    +0.365 C 
ATOM    133  OE2 GLU A   7      48.967  62.923 131.803  0.00  0.00    -0.246 OA
ATOM    134  OE1 GLU A   7      47.236  61.692 131.222  0.00  0.00    -0.246 OA
ENDBRANCH 131 132
ENDBRANCH 130 131
ENDBRANCH   1 130
TORSDOF 52
REMARK  Name = ../refined-set-2016/4f6w/4f6w_pocket.pdb
REMARK  309 active torsions:
REMARK  status: ('A' for Active; 'I' for Inactive)
REMARK    1  A    between atoms: _1  and  _3
REMARK    2  A    between atoms: _3  and  _4
REMARK    3  A    between atoms: _3  and  _6
REMARK    4  A    between atoms: _8  and  _10
REMARK    5  A    between atoms: _10  and  _11
REMARK    6  A    between atoms: _10  and  _13
REMARK    7  A    between atoms: _13  and  _14
REMARK    8  A    between atoms: _14  and  _15
REMARK    9  A    between atoms: _15  and  _16
REMARK   10  A    between atoms: _16  and  _17
REMARK   11  A    between atoms: _21  and  _23
REMARK   12  A    between atoms: _23  and  _24
REMARK   13  A    between atoms: _23  and  _26
REMARK   14  A    between atoms: _29  and  _31
REMARK   15  A    between atoms: _31  and  _32
REMARK   16  A    between atoms: _34  and  _36
REMARK   17  A    between atoms: _36  and  _37
REMARK   18  A    between atoms: _36  and  _39
REMARK   19  A    between atoms: _39  and  _40
REMARK   20  A    between atoms: _40  and  _41
REMARK   21  A    between atoms: _41  and  _42
REMARK   22  A    between atoms: _51  and  _53
REMARK   23  A    between atoms: _53  and  _54
REMARK   24  A    between atoms: _56  and  _58
REMARK   25  A    between atoms: _58  and  _59
REMARK   26  A    between atoms: _58  and  _61
REMARK   27  A    between atoms: _61  and  _62
REMARK   28  A    between atoms: _67  and  _68
REMARK   29  A    between atoms: _70  and  _72
REMARK   30  A    between atoms: _72  and  _73
REMARK   31  A    between atoms: _75  and  _77
REMARK   32  A    between atoms: _77  and  _78
REMARK   33  A    between atoms: _77  and  _80
REMARK   34  A    between atoms: _80  and  _81
REMARK   35  A    between atoms: _86  and  _88
REMARK   36  A    between atoms: _88  and  _89
REMARK   37  A    between atoms: _88  and  _91
REMARK   38  A    between atoms: _94  and  _96
REMARK   39  A    between atoms: _96  and  _97
REMARK   40  A    between atoms: _96  and  _99
REMARK   41  A    between atoms: _99  and  _100
REMARK   42  A    between atoms: _105  and  _106
REMARK   43  A    between atoms: _108  and  _110
REMARK   44  A    between atoms: _110  and  _111
REMARK   45  A    between atoms: _110  and  _113
REMARK   46  A    between atoms: _113  and  _114
REMARK   47  A    between atoms: _114  and  _115
REMARK   48  A    between atoms: _115  and  _116
REMARK   49  A    between atoms: _116  and  _117
REMARK   50  A    between atoms: _121  and  _123
REMARK   51  A    between atoms: _123  and  _124
REMARK   52  A    between atoms: _127  and  _129
REMARK   53  A    between atoms: _129  and  _130
REMARK   54  A    between atoms: _129  and  _132
REMARK   55  A    between atoms: _132  and  _133
REMARK   56  A    between atoms: _138  and  _139
REMARK   57  A    between atoms: _141  and  _143
REMARK   58  A    between atoms: _143  and  _144
REMARK   59  A    between atoms: _147  and  _149
REMARK   60  A    between atoms: _149  and  _150
REMARK   61  A    between atoms: _149  and  _152
REMARK   62  A    between atoms: _152  and  _153
REMARK   63  A    between atoms: _156  and  _158
REMARK   64  A    between atoms: _158  and  _159
REMARK   65  A    between atoms: _158  and  _161
REMARK   66  A    between atoms: _161  and  _162
REMARK   67  A    between atoms: _162  and  _163
REMARK   68  A    between atoms: _163  and  _164
REMARK   69  A    between atoms: _164  and  _165
REMARK   70  A    between atoms: _169  and  _171
REMARK   71  A    between atoms: _171  and  _172
REMARK   72  A    between atoms: _171  and  _174
REMARK   73  A    between atoms: _174  and  _175
REMARK   74  A    between atoms: _175  and  _176
REMARK   75  A    between atoms: _181  and  _183
REMARK   76  A    between atoms: _183  and  _184
REMARK   77  A    between atoms: _183  and  _186
REMARK   78  A    between atoms: _186  and  _187
REMARK   79  A    between atoms: _190  and  _192
REMARK   80  A    between atoms: _192  and  _193
REMARK   81  A    between atoms: _192  and  _195
REMARK   82  A    between atoms: _195  and  _196
REMARK   83  A    between atoms: _198  and  _200
REMARK   84  A    between atoms: _200  and  _201
REMARK   85  A    between atoms: _200  and  _203
REMARK   86  A    between atoms: _203  and  _204
REMARK   87  A    between atoms: _204  and  _205
REMARK   88  A    between atoms: _207  and  _209
REMARK   89  A    between atoms: _209  and  _210
REMARK   90  A    between atoms: _209  and  _212
REMARK   91  A    between atoms: _212  and  _213
REMARK   92  A    between atoms: _215  and  _217
REMARK   93  A    between atoms: _217  and  _218
REMARK   94  A    between atoms: _221  and  _223
REMARK   95  A    between atoms: _223  and  _224
REMARK   96  A    between atoms: _223  and  _226
REMARK   97  A    between atoms: _228  and  _230
REMARK   98  A    between atoms: _230  and  _231
REMARK   99  A    between atoms: _230  and  _233
REMARK  100  A    between atoms: _233  and  _234
REMARK  101  A    between atoms: _234  and  _235
REMARK  102  A    between atoms: _235  and  _236
REMARK  103  A    between atoms: _245  and  _247
REMARK  104  A    between atoms: _247  and  _248
REMARK  105  A    between atoms: _247  and  _250
REMARK  106  A    between atoms: _250  and  _251
REMARK  107  A    between atoms: _251  and  _252
REMARK  108  A    between atoms: _255  and  _257
REMARK  109  A    between atoms: _257  and  _258
REMARK  110  A    between atoms: _257  and  _260
REMARK  111  A    between atoms: _260  and  _261
REMARK  112  A    between atoms: _264  and  _266
REMARK  113  A    between atoms: _266  and  _267
REMARK  114  A    between atoms: _270  and  _272
REMARK  115  A    between atoms: _272  and  _273
REMARK  116  A    between atoms: _272  and  _275
REMARK  117  A    between atoms: _275  and  _276
REMARK  118  A    between atoms: _279  and  _281
REMARK  119  A    between atoms: _281  and  _282
REMARK  120  A    between atoms: _281  and  _284
REMARK  121  A    between atoms: _284  and  _285
REMARK  122  A    between atoms: _288  and  _290
REMARK  123  A    between atoms: _290  and  _291
REMARK  124  A    between atoms: _290  and  _293
REMARK  125  A    between atoms: _293  and  _294
REMARK  126  A    between atoms: _297  and  _299
REMARK  127  A    between atoms: _299  and  _300
REMARK  128  A    between atoms: _299  and  _302
REMARK  129  A    between atoms: _302  and  _303
REMARK  130  A    between atoms: _308  and  _310
REMARK  131  A    between atoms: _310  and  _311
REMARK  132  A    between atoms: _310  and  _313
REMARK  133  A    between atoms: _316  and  _318
REMARK  134  A    between atoms: _318  and  _319
REMARK  135  A    between atoms: _318  and  _321
REMARK  136  A    between atoms: _321  and  _322
REMARK  137  A    between atoms: _325  and  _327
REMARK  138  A    between atoms: _327  and  _328
REMARK  139  A    between atoms: _327  and  _330
REMARK  140  A    between atoms: _330  and  _331
REMARK  141  A    between atoms: _333  and  _335
REMARK  142  A    between atoms: _335  and  _336
REMARK  143  A    between atoms: _335  and  _338
REMARK  144  A    between atoms: _338  and  _339
REMARK  145  A    between atoms: _342  and  _344
REMARK  146  A    between atoms: _344  and  _345
REMARK  147  A    between atoms: _344  and  _347
REMARK  148  A    between atoms: _347  and  _348
REMARK  149  A    between atoms: _351  and  _353
REMARK  150  A    between atoms: _353  and  _354
REMARK  151  A    between atoms: _353  and  _356
REMARK  152  A    between atoms: _356  and  _357
REMARK  153  A    between atoms: _360  and  _362
REMARK  154  A    between atoms: _362  and  _363
REMARK  155  A    between atoms: _362  and  _365
REMARK  156  A    between atoms: _365  and  _366
REMARK  157  A    between atoms: _372  and  _374
REMARK  158  A    between atoms: _374  and  _375
REMARK  159  A    between atoms: _374  and  _377
REMARK  160  A    between atoms: _377  and  _378
REMARK  161  A    between atoms: _381  and  _383
REMARK  162  A    between atoms: _383  and  _384
REMARK  163  A    between atoms: _383  and  _386
REMARK  164  A    between atoms: _386  and  _387
REMARK  165  A    between atoms: _392  and  _393
REMARK  166  A    between atoms: _395  and  _397
REMARK  167  A    between atoms: _397  and  _398
REMARK  168  A    between atoms: _401  and  _403
REMARK  169  A    between atoms: _403  and  _404
REMARK  170  A    between atoms: _403  and  _406
REMARK  171  A    between atoms: _406  and  _407
REMARK  172  A    between atoms: _407  and  _408
REMARK  173  A    between atoms: _411  and  _413
REMARK  174  A    between atoms: _413  and  _414
REMARK  175  A    between atoms: _413  and  _416
REMARK  176  A    between atoms: _416  and  _417
REMARK  177  A    between atoms: _422  and  _424
REMARK  178  A    between atoms: _424  and  _425
REMARK  179  A    between atoms: _424  and  _427
REMARK  180  A    between atoms: _427  and  _428
REMARK  181  A    between atoms: _431  and  _433
REMARK  182  A    between atoms: _433  and  _434
REMARK  183  A    between atoms: _433  and  _436
REMARK  184  A    between atoms: _436  and  _437
REMARK  185  A    between atoms: _440  and  _442
REMARK  186  A    between atoms: _442  and  _443
REMARK  187  A    between atoms: _442  and  _445
REMARK  188  A    between atoms: _445  and  _446
REMARK  189  A    between atoms: _456  and  _458
REMARK  190  A    between atoms: _458  and  _459
REMARK  191  A    between atoms: _458  and  _461
REMARK  192  A    between atoms: _461  and  _462
REMARK  193  A    between atoms: _467  and  _469
REMARK  194  A    between atoms: _469  and  _470
REMARK  195  A    between atoms: _469  and  _472
REMARK  196  A    between atoms: _472  and  _473
REMARK  197  A    between atoms: _476  and  _478
REMARK  198  A    between atoms: _478  and  _479
REMARK  199  A    between atoms: _478  and  _481
REMARK  200  A    between atoms: _481  and  _482
REMARK  201  A    between atoms: _482  and  _483
REMARK  202  A    between atoms: _483  and  _484
REMARK  203  A    between atoms: _484  and  _485
REMARK  204  A    between atoms: _489  and  _491
REMARK  205  A    between atoms: _491  and  _492
REMARK  206  A    between atoms: _494  and  _496
REMARK  207  A    between atoms: _496  and  _497
REMARK  208  A    between atoms: _496  and  _499
REMARK  209  A    between atoms: _499  and  _500
REMARK  210  A    between atoms: _503  and  _505
REMARK  211  A    between atoms: _505  and  _506
REMARK  212  A    between atoms: _505  and  _508
REMARK  213  A    between atoms: _508  and  _509
REMARK  214  A    between atoms: _514  and  _515
REMARK  215  A    between atoms: _517  and  _519
REMARK  216  A    between atoms: _519  and  _520
REMARK  217  A    between atoms: _519  and  _522
REMARK  218  A    between atoms: _522  and  _523
REMARK  219  A    between atoms: _526  and  _528
REMARK  220  A    between atoms: _528  and  _529
REMARK  221  A    between atoms: _528  and  _531
REMARK  222  A    between atoms: _534  and  _536
REMARK  223  A    between atoms: _536  and  _537
REMARK  224  A    between atoms: _536  and  _539
REMARK  225  A    between atoms: _539  and  _540
REMARK  226  A    between atoms: _543  and  _545
REMARK  227  A    between atoms: _545  and  _546
REMARK  228  A    between atoms: _545  and  _548
REMARK  229  A    between atoms: _548  and  _549
REMARK  230  A    between atoms: _554  and  _556
REMARK  231  A    between atoms: _556  and  _557
REMARK  232  A    between atoms: _556  and  _559
REMARK  233  A    between atoms: _559  and  _560
REMARK  234  A    between atoms: _560  and  _561
REMARK  235  A    between atoms: _561  and  _562
REMARK  236  A    between atoms: _571  and  _573
REMARK  237  A    between atoms: _573  and  _574
REMARK  238  A    between atoms: _573  and  _576
REMARK  239  A    between atoms: _576  and  _577
REMARK  240  A    between atoms: _580  and  _582
REMARK  241  A    between atoms: _582  and  _583
REMARK  242  A    between atoms: _582  and  _585
REMARK  243  A    between atoms: _585  and  _586
REMARK  244  A    between atoms: _589  and  _591
REMARK  245  A    between atoms: _591  and  _592
REMARK  246  A    between atoms: _591  and  _594
REMARK  247  A    between atoms: _594  and  _595
REMARK  248  A    between atoms: _595  and  _596
REMARK  249  A    between atoms: _596  and  _597
REMARK  250  A    between atoms: _597  and  _598
REMARK  251  A    between atoms: _603  and  _604
REMARK  252  A    between atoms: _609  and  _611
REMARK  253  A    between atoms: _611  and  _612
REMARK  254  A    between atoms: _615  and  _617
REMARK  255  A    between atoms: _617  and  _618
REMARK  256  A    between atoms: _617  and  _620
REMARK  257  A    between atoms: _620  and  _621
REMARK  258  A    between atoms: _626  and  _628
REMARK  259  A    between atoms: _628  and  _629
REMARK  260  A    between atoms: _628  and  _631
REMARK  261  A    between atoms: _631  and  _632
REMARK  262  A    between atoms: _635  and  _637
REMARK  263  A    between atoms: _637  and  _638
REMARK  264  A    between atoms: _637  and  _640
REMARK  265  A    between atoms: _640  and  _641
REMARK  266  A    between atoms: _644  and  _646
REMARK  267  A    between atoms: _646  and  _647
REMARK  268  A    between atoms: _646  and  _649
REMARK  269  A    between atoms: _652  and  _654
REMARK  270  A    between atoms: _654  and  _655
REMARK  271  A    between atoms: _654  and  _657
REMARK  272  A    between atoms: _657  and  _658
REMARK  273  A    between atoms: _658  and  _659
REMARK  274  A    between atoms: _659  and  _660
REMARK  275  A    between atoms: _660  and  _661
REMARK  276  A    between atoms: _665  and  _667
REMARK  277  A    between atoms: _667  and  _668
REMARK  278  A    between atoms: _667  and  _670
REMARK  279  A    between atoms: _670  and  _671
REMARK  280  A    between atoms: _674  and  _676
REMARK  281  A    between atoms: _676  and  _677
REMARK  282  A    between atoms: _680  and  _682
REMARK  283  A    between atoms: _682  and  _683
REMARK  284  A    between atoms: _682  and  _685
REMARK  285  A    between atoms: _685  and  _686
REMARK  286  A    between atoms: _689  and  _691
REMARK  287  A    between atoms: _691  and  _692
REMARK  288  A    between atoms: _691  and  _694
REMARK  289  A    between atoms: _694  and  _695
REMARK  290  A    between atoms: _695  and  _696
REMARK  291  A    between atoms: _698  and  _700
REMARK  292  A    between atoms: _700  and  _701
REMARK  293  A    between atoms: _703  and  _705
REMARK  294  A    between atoms: _705  and  _706
REMARK  295  A    between atoms: _705  and  _708
REMARK  296  A    between atoms: _708  and  _709
REMARK  297  A    between atoms: _715  and  _717
REMARK  298  A    between atoms: _717  and  _718
REMARK  299  A    between atoms: _721  and  _723
REMARK  300  A    between atoms: _723  and  _724
REMARK  301  A    between atoms: _723  and  _726
REMARK  302  A    between atoms: _726  and  _727
REMARK  303  A    between atoms: _727  and  _728
REMARK  304  A    between atoms: _728  and  _729
REMARK  305  A    between atoms: _738  and  _740
REMARK  306  A    between atoms: _740  and  _741
REMARK  307  A    between atoms: _740  and  _743
REMARK  308  A    between atoms: _743  and  _744
REMARK  309  A    between atoms: _744  and  _745
REMARK                            x       y       z     vdW  Elec       q    Type
REMARK                         _______ _______ _______ _____ _____    ______ ____
ROOT
ATOM      1  CG  LYS A   1      43.993  46.703 127.906  0.00  0.00    -0.000 C 
ENDROOT
BRANCH   1   2
ATOM      2  CB  LYS A   1      44.872  46.825 129.146  0.00  0.00    +0.025 C 
BRANCH   2   3
ATOM      3  CA  LYS A   1      46.129  45.935 129.173  0.00  0.00    +0.133 C 
BRANCH   3   4
ATOM      4  N   LYS A   1      46.803  46.081 130.466  0.00  0.00    -0.239 NA
ATOM      5  H   LYS A   1      46.399  46.739 131.162  0.00  0.00    +0.142 HD
ENDBRANCH   3   4
BRANCH   3   6
ATOM      6  C   LYS A   1      47.041  46.261 127.980  0.00  0.00    +0.224 C 
ATOM      7  O   LYS A   1      46.956  45.608 126.927  0.00  0.00    -0.287 OA
ENDBRANCH   3   6
ENDBRANCH   2   3
ENDBRANCH   1   2
BRANCH   1   8
ATOM      8  CD  LYS A   1      42.678  47.433 128.091  0.00  0.00    -0.024 C 
BRANCH   8   9
ATOM      9  CE  LYS A   1      41.814  47.329 126.844  0.00  0.00    -0.086 C 
BRANCH   9  10
ATOM     10  NZ  LYS A   1      40.507  48.023 127.008  0.00  0.00    +0.380 N 
ATOM     11  HZ1 LYS A   1      39.986  47.596 127.800  0.00  0.00    -0.089 HD
ATOM     12  HZ2 LYS A   1      40.673  49.031 127.204  0.00  0.00    -0.089 HD
ATOM     13  HZ3 LYS A   1      39.952  47.926 126.134  0.00  0.00    -0.089 HD
ENDBRANCH   9  10
ENDBRANCH   8   9
ENDBRANCH   1   8
TORSDOF 7
REMARK  Name = ../refined-set-2016/4f6w/4f6w_pocket.pdb
REMARK  309 active torsions:
REMARK  status: ('A' for Active; 'I' for Inactive)
REMARK    1  A    between atoms: _1  and  _3
REMARK    2  A    between atoms: _3  and  _4
REMARK    3  A    between atoms: _3  and  _6
REMARK    4  A    between atoms: _8  and  _10
REMARK    5  A    between atoms: _10  and  _11
REMARK    6  A    between atoms: _10  and  _13
REMARK    7  A    between atoms: _13  and  _14
REMARK    8  A    between atoms: _14  and  _15
REMARK    9  A    between atoms: _15  and  _16
REMARK   10  A    between atoms: _16  and  _17
REMARK   11  A    between atoms: _21  and  _23
REMARK   12  A    between atoms: _23  and  _24
REMARK   13  A    between atoms: _23  and  _26
REMARK   14  A    between atoms: _29  and  _31
REMARK   15  A    between atoms: _31  and  _32
REMARK   16  A    between atoms: _34  and  _36
REMARK   17  A    between atoms: _36  and  _37
REMARK   18  A    between atoms: _36  and  _39
REMARK   19  A    between atoms: _39  and  _40
REMARK   20  A    between atoms: _40  and  _41
REMARK   21  A    between atoms: _41  and  _42
REMARK   22  A    between atoms: _51  and  _53
REMARK   23  A    between atoms: _53  and  _54
REMARK   24  A    between atoms: _56  and  _58
REMARK   25  A    between atoms: _58  and  _59
REMARK   26  A    between atoms: _58  and  _61
REMARK   27  A    between atoms: _61  and  _62
REMARK   28  A    between atoms: _67  and  _68
REMARK   29  A    between atoms: _70  and  _72
REMARK   30  A    between atoms: _72  and  _73
REMARK   31  A    between atoms: _75  and  _77
REMARK   32  A    between atoms: _77  and  _78
REMARK   33  A    between atoms: _77  and  _80
REMARK   34  A    between atoms: _80  and  _81
REMARK   35  A    between atoms: _86  and  _88
REMARK   36  A    between atoms: _88  and  _89
REMARK   37  A    between atoms: _88  and  _91
REMARK   38  A    between atoms: _94  and  _96
REMARK   39  A    between atoms: _96  and  _97
REMARK   40  A    between atoms: _96  and  _99
REMARK   41  A    between atoms: _99  and  _100
REMARK   42  A    between atoms: _105  and  _106
REMARK   43  A    between atoms: _108  and  _110
REMARK   44  A    between atoms: _110  and  _111
REMARK   45  A    between atoms: _110  and  _113
REMARK   46  A    between atoms: _113  and  _114
REMARK   47  A    between atoms: _114  and  _115
REMARK   48  A    between atoms: _115  and  _116
REMARK   49  A    between atoms: _116  and  _117
REMARK   50  A    between atoms: _121  and  _123
REMARK   51  A    between atoms: _123  and  _124
REMARK   52  A    between atoms: _127  and  _129
REMARK   53  A    between atoms: _129  and  _130
REMARK   54  A    between atoms: _129  and  _132
REMARK   55  A    between atoms: _132  and  _133
REMARK   56  A    between atoms: _138  and  _139
REMARK   57  A    between atoms: _141  and  _143
REMARK   58  A    between atoms: _143  and  _144
REMARK   59  A    between atoms: _147  and  _149
REMARK   60  A    between atoms: _149  and  _150
REMARK   61  A    between atoms: _149  and  _152
REMARK   62  A    between atoms: _152  and  _153
REMARK   63  A    between atoms: _156  and  _158
REMARK   64  A    between atoms: _158  and  _159
REMARK   65  A    between atoms: _158  and  _161
REMARK   66  A    between atoms: _161  and  _162
REMARK   67  A    between atoms: _162  and  _163
REMARK   68  A    between atoms: _163  and  _164
REMARK   69  A    between atoms: _164  and  _165
REMARK   70  A    between atoms: _169  and  _171
REMARK   71  A    between atoms: _171  and  _172
REMARK   72  A    between atoms: _171  and  _174
REMARK   73  A    between atoms: _174  and  _175
REMARK   74  A    between atoms: _175  and  _176
REMARK   75  A    between atoms: _181  and  _183
REMARK   76  A    between atoms: _183  and  _184
REMARK   77  A    between atoms: _183  and  _186
REMARK   78  A    between atoms: _186  and  _187
REMARK   79  A    between atoms: _190  and  _192
REMARK   80  A    between atoms: _192  and  _193
REMARK   81  A    between atoms: _192  and  _195
REMARK   82  A    between atoms: _195  and  _196
REMARK   83  A    between atoms: _198  and  _200
REMARK   84  A    between atoms: _200  and  _201
REMARK   85  A    between atoms: _200  and  _203
REMARK   86  A    between atoms: _203  and  _204
REMARK   87  A    between atoms: _204  and  _205
REMARK   88  A    between atoms: _207  and  _209
REMARK   89  A    between atoms: _209  and  _210
REMARK   90  A    between atoms: _209  and  _212
REMARK   91  A    between atoms: _212  and  _213
REMARK   92  A    between atoms: _215  and  _217
REMARK   93  A    between atoms: _217  and  _218
REMARK   94  A    between atoms: _221  and  _223
REMARK   95  A    between atoms: _223  and  _224
REMARK   96  A    between atoms: _223  and  _226
REMARK   97  A    between atoms: _228  and  _230
REMARK   98  A    between atoms: _230  and  _231
REMARK   99  A    between atoms: _230  and  _233
REMARK  100  A    between atoms: _233  and  _234
REMARK  101  A    between atoms: _234  and  _235
REMARK  102  A    between atoms: _235  and  _236
REMARK  103  A    between atoms: _245  and  _247
REMARK  104  A    between atoms: _247  and  _248
REMARK  105  A    between atoms: _247  and  _250
REMARK  106  A    between atoms: _250  and  _251
REMARK  107  A    between atoms: _251  and  _252
REMARK  108  A    between atoms: _255  and  _257
REMARK  109  A    between atoms: _257  and  _258
REMARK  110  A    between atoms: _257  and  _260
REMARK  111  A    between atoms: _260  and  _261
REMARK  112  A    between atoms: _264  and  _266
REMARK  113  A    between atoms: _266  and  _267
REMARK  114  A    between atoms: _270  and  _272
REMARK  115  A    between atoms: _272  and  _273
REMARK  116  A    between atoms: _272  and  _275
REMARK  117  A    between atoms: _275  and  _276
REMARK  118  A    between atoms: _279  and  _281
REMARK  119  A    between atoms: _281  and  _282
REMARK  120  A    between atoms: _281  and  _284
REMARK  121  A    between atoms: _284  and  _285
REMARK  122  A    between atoms: _288  and  _290
REMARK  123  A    between atoms: _290  and  _291
REMARK  124  A    between atoms: _290  and  _293
REMARK  125  A    between atoms: _293  and  _294
REMARK  126  A    between atoms: _297  and  _299
REMARK  127  A    between atoms: _299  and  _300
REMARK  128  A    between atoms: _299  and  _302
REMARK  129  A    between atoms: _302  and  _303
REMARK  130  A    between atoms: _308  and  _310
REMARK  131  A    between atoms: _310  and  _311
REMARK  132  A    between atoms: _310  and  _313
REMARK  133  A    between atoms: _316  and  _318
REMARK  134  A    between atoms: _318  and  _319
REMARK  135  A    between atoms: _318  and  _321
REMARK  136  A    between atoms: _321  and  _322
REMARK  137  A    between atoms: _325  and  _327
REMARK  138  A    between atoms: _327  and  _328
REMARK  139  A    between atoms: _327  and  _330
REMARK  140  A    between atoms: _330  and  _331
REMARK  141  A    between atoms: _333  and  _335
REMARK  142  A    between atoms: _335  and  _336
REMARK  143  A    between atoms: _335  and  _338
REMARK  144  A    between atoms: _338  and  _339
REMARK  145  A    between atoms: _342  and  _344
REMARK  146  A    between atoms: _344  and  _345
REMARK  147  A    between atoms: _344  and  _347
REMARK  148  A    between atoms: _347  and  _348
REMARK  149  A    between atoms: _351  and  _353
REMARK  150  A    between atoms: _353  and  _354
REMARK  151  A    between atoms: _353  and  _356
REMARK  152  A    between atoms: _356  and  _357
REMARK  153  A    between atoms: _360  and  _362
REMARK  154  A    between atoms: _362  and  _363
REMARK  155  A    between atoms: _362  and  _365
REMARK  156  A    between atoms: _365  and  _366
REMARK  157  A    between atoms: _372  and  _374
REMARK  158  A    between atoms: _374  and  _375
REMARK  159  A    between atoms: _374  and  _377
REMARK  160  A    between atoms: _377  and  _378
REMARK  161  A    between atoms: _381  and  _383
REMARK  162  A    between atoms: _383  and  _384
REMARK  163  A    between atoms: _383  and  _386
REMARK  164  A    between atoms: _386  and  _387
REMARK  165  A    between atoms: _392  and  _393
REMARK  166  A    between atoms: _395  and  _397
REMARK  167  A    between atoms: _397  and  _398
REMARK  168  A    between atoms: _401  and  _403
REMARK  169  A    between atoms: _403  and  _404
REMARK  170  A    between atoms: _403  and  _406
REMARK  171  A    between atoms: _406  and  _407
REMARK  172  A    between atoms: _407  and  _408
REMARK  173  A    between atoms: _411  and  _413
REMARK  174  A    between atoms: _413  and  _414
REMARK  175  A    between atoms: _413  and  _416
REMARK  176  A    between atoms: _416  and  _417
REMARK  177  A    between atoms: _422  and  _424
REMARK  178  A    between atoms: _424  and  _425
REMARK  179  A    between atoms: _424  and  _427
REMARK  180  A    between atoms: _427  and  _428
REMARK  181  A    between atoms: _431  and  _433
REMARK  182  A    between atoms: _433  and  _434
REMARK  183  A    between atoms: _433  and  _436
REMARK  184  A    between atoms: _436  and  _437
REMARK  185  A    between atoms: _440  and  _442
REMARK  186  A    between atoms: _442  and  _443
REMARK  187  A    between atoms: _442  and  _445
REMARK  188  A    between atoms: _445  and  _446
REMARK  189  A    between atoms: _456  and  _458
REMARK  190  A    between atoms: _458  and  _459
REMARK  191  A    between atoms: _458  and  _461
REMARK  192  A    between atoms: _461  and  _462
REMARK  193  A    between atoms: _467  and  _469
REMARK  194  A    between atoms: _469  and  _470
REMARK  195  A    between atoms: _469  and  _472
REMARK  196  A    between atoms: _472  and  _473
REMARK  197  A    between atoms: _476  and  _478
REMARK  198  A    between atoms: _478  and  _479
REMARK  199  A    between atoms: _478  and  _481
REMARK  200  A    between atoms: _481  and  _482
REMARK  201  A    between atoms: _482  and  _483
REMARK  202  A    between atoms: _483  and  _484
REMARK  203  A    between atoms: _484  and  _485
REMARK  204  A    between atoms: _489  and  _491
REMARK  205  A    between atoms: _491  and  _492
REMARK  206  A    between atoms: _494  and  _496
REMARK  207  A    between atoms: _496  and  _497
REMARK  208  A    between atoms: _496  and  _499
REMARK  209  A    between atoms: _499  and  _500
REMARK  210  A    between atoms: _503  and  _505
REMARK  211  A    between atoms: _505  and  _506
REMARK  212  A    between atoms: _505  and  _508
REMARK  213  A    between atoms: _508  and  _509
REMARK  214  A    between atoms: _514  and  _515
REMARK  215  A    between atoms: _517  and  _519
REMARK  216  A    between atoms: _519  and  _520
REMARK  217  A    between atoms: _519  and  _522
REMARK  218  A    between atoms: _522  and  _523
REMARK  219  A    between atoms: _526  and  _528
REMARK  220  A    between atoms: _528  and  _529
REMARK  221  A    between atoms: _528  and  _531
REMARK  222  A    between atoms: _534  and  _536
REMARK  223  A    between atoms: _536  and  _537
REMARK  224  A    between atoms: _536  and  _539
REMARK  225  A    between atoms: _539  and  _540
REMARK  226  A    between atoms: _543  and  _545
REMARK  227  A    between atoms: _545  and  _546
REMARK  228  A    between atoms: _545  and  _548
REMARK  229  A    between atoms: _548  and  _549
REMARK  230  A    between atoms: _554  and  _556
REMARK  231  A    between atoms: _556  and  _557
REMARK  232  A    between atoms: _556  and  _559
REMARK  233  A    between atoms: _559  and  _560
REMARK  234  A    between atoms: _560  and  _561
REMARK  235  A    between atoms: _561  and  _562
REMARK  236  A    between atoms: _571  and  _573
REMARK  237  A    between atoms: _573  and  _574
REMARK  238  A    between atoms: _573  and  _576
REMARK  239  A    between atoms: _576  and  _577
REMARK  240  A    between atoms: _580  and  _582
REMARK  241  A    between atoms: _582  and  _583
REMARK  242  A    between atoms: _582  and  _585
REMARK  243  A    between atoms: _585  and  _586
REMARK  244  A    between atoms: _589  and  _591
REMARK  245  A    between atoms: _591  and  _592
REMARK  246  A    between atoms: _591  and  _594
REMARK  247  A    between atoms: _594  and  _595
REMARK  248  A    between atoms: _595  and  _596
REMARK  249  A    between atoms: _596  and  _597
REMARK  250  A    between atoms: _597  and  _598
REMARK  251  A    between atoms: _603  and  _604
REMARK  252  A    between atoms: _609  and  _611
REMARK  253  A    between atoms: _611  and  _612
REMARK  254  A    between atoms: _615  and  _617
REMARK  255  A    between atoms: _617  and  _618
REMARK  256  A    between atoms: _617  and  _620
REMARK  257  A    between atoms: _620  and  _621
REMARK  258  A    between atoms: _626  and  _628
REMARK  259  A    between atoms: _628  and  _629
REMARK  260  A    between atoms: _628  and  _631
REMARK  261  A    between atoms: _631  and  _632
REMARK  262  A    between atoms: _635  and  _637
REMARK  263  A    between atoms: _637  and  _638
REMARK  264  A    between atoms: _637  and  _640
REMARK  265  A    between atoms: _640  and  _641
REMARK  266  A    between atoms: _644  and  _646
REMARK  267  A    between atoms: _646  and  _647
REMARK  268  A    between atoms: _646  and  _649
REMARK  269  A    between atoms: _652  and  _654
REMARK  270  A    between atoms: _654  and  _655
REMARK  271  A    between atoms: _654  and  _657
REMARK  272  A    between atoms: _657  and  _658
REMARK  273  A    between atoms: _658  and  _659
REMARK  274  A    between atoms: _659  and  _660
REMARK  275  A    between atoms: _660  and  _661
REMARK  276  A    between atoms: _665  and  _667
REMARK  277  A    between atoms: _667  and  _668
REMARK  278  A    between atoms: _667  and  _670
REMARK  279  A    between atoms: _670  and  _671
REMARK  280  A    between atoms: _674  and  _676
REMARK  281  A    between atoms: _676  and  _677
REMARK  282  A    between atoms: _680  and  _682
REMARK  283  A    between atoms: _682  and  _683
REMARK  284  A    between atoms: _682  and  _685
REMARK  285  A    between atoms: _685  and  _686
REMARK  286  A    between atoms: _689  and  _691
REMARK  287  A    between atoms: _691  and  _692
REMARK  288  A    between atoms: _691  and  _694
REMARK  289  A    between atoms: _694  and  _695
REMARK  290  A    between atoms: _695  and  _696
REMARK  291  A    between atoms: _698  and  _700
REMARK  292  A    between atoms: _700  and  _701
REMARK  293  A    between atoms: _703  and  _705
REMARK  294  A    between atoms: _705  and  _706
REMARK  295  A    between atoms: _705  and  _708
REMARK  296  A    between atoms: _708  and  _709
REMARK  297  A    between atoms: _715  and  _717
REMARK  298  A    between atoms: _717  and  _718
REMARK  299  A    between atoms: _721  and  _723
REMARK  300  A    between atoms: _723  and  _724
REMARK  301  A    between atoms: _723  and  _726
REMARK  302  A    between atoms: _726  and  _727
REMARK  303  A    between atoms: _727  and  _728
REMARK  304  A    between atoms: _728  and  _729
REMARK  305  A    between atoms: _738  and  _740
REMARK  306  A    between atoms: _740  and  _741
REMARK  307  A    between atoms: _740  and  _743
REMARK  308  A    between atoms: _743  and  _744
REMARK  309  A    between atoms: _744  and  _745
REMARK                            x       y       z     vdW  Elec       q    Type
REMARK                         _______ _______ _______ _____ _____    ______ ____
ROOT
ATOM      1  C   GLY A   1      49.376  51.622 151.772  0.00  0.00    +0.240 C 
ATOM      2  O   GLY A   1      48.768  52.224 152.660  0.00  0.00    -0.274 OA
ATOM      3  N   ILE A   2      49.176  50.334 151.503  0.00  0.00    -0.298 N 
ATOM      4  H   ILE A   2      49.712  49.892 150.729  0.00  0.00    +0.150 HD
ENDROOT
BRANCH   1   5
ATOM      5  CA  GLY A   1      50.427  52.346 150.938  0.00  0.00    +0.169 C 
BRANCH   5   6
ATOM      6  N   GLY A   1      51.686  51.615 150.805  0.00  0.00    -0.236 NA
ATOM      7  H   GLY A   1      52.001  51.326 149.857  0.00  0.00    +0.142 HD
ENDBRANCH   5   6
ENDBRANCH   1   5
BRANCH   3   8
ATOM      8  CA  ILE A   2      48.218  49.515 152.268  0.00  0.00    +0.137 C 
BRANCH   8   9
ATOM      9  C   ILE A   2      48.626  49.359 153.728  0.00  0.00    +0.227 C 
ATOM     10  O   ILE A   2      47.765  49.445 154.621  0.00  0.00    -0.286 OA
ENDBRANCH   8   9
BRANCH   8  11
ATOM     11  CB  ILE A   2      47.977  48.127 151.609  0.00  0.00    +0.026 C 
ATOM     12  CG2 ILE A   2      47.250  47.185 152.529  0.00  0.00    +0.002 C 
BRANCH  11  13
ATOM     13  CG1 ILE A   2      47.066  48.296 150.392  0.00  0.00    +0.002 C 
ATOM     14  CD1 ILE A   2      45.633  48.757 150.769  0.00  0.00    +0.000 C 
ENDBRANCH  11  13
ENDBRANCH   8  11
ENDBRANCH   3   8
TORSDOF 6
REMARK  Name = ../refined-set-2016/4f6w/4f6w_pocket.pdb
REMARK  309 active torsions:
REMARK  status: ('A' for Active; 'I' for Inactive)
REMARK    1  A    between atoms: _1  and  _3
REMARK    2  A    between atoms: _3  and  _4
REMARK    3  A    between atoms: _3  and  _6
REMARK    4  A    between atoms: _8  and  _10
REMARK    5  A    between atoms: _10  and  _11
REMARK    6  A    between atoms: _10  and  _13
REMARK    7  A    between atoms: _13  and  _14
REMARK    8  A    between atoms: _14  and  _15
REMARK    9  A    between atoms: _15  and  _16
REMARK   10  A    between atoms: _16  and  _17
REMARK   11  A    between atoms: _21  and  _23
REMARK   12  A    between atoms: _23  and  _24
REMARK   13  A    between atoms: _23  and  _26
REMARK   14  A    between atoms: _29  and  _31
REMARK   15  A    between atoms: _31  and  _32
REMARK   16  A    between atoms: _34  and  _36
REMARK   17  A    between atoms: _36  and  _37
REMARK   18  A    between atoms: _36  and  _39
REMARK   19  A    between atoms: _39  and  _40
REMARK   20  A    between atoms: _40  and  _41
REMARK   21  A    between atoms: _41  and  _42
REMARK   22  A    between atoms: _51  and  _53
REMARK   23  A    between atoms: _53  and  _54
REMARK   24  A    between atoms: _56  and  _58
REMARK   25  A    between atoms: _58  and  _59
REMARK   26  A    between atoms: _58  and  _61
REMARK   27  A    between atoms: _61  and  _62
REMARK   28  A    between atoms: _67  and  _68
REMARK   29  A    between atoms: _70  and  _72
REMARK   30  A    between atoms: _72  and  _73
REMARK   31  A    between atoms: _75  and  _77
REMARK   32  A    between atoms: _77  and  _78
REMARK   33  A    between atoms: _77  and  _80
REMARK   34  A    between atoms: _80  and  _81
REMARK   35  A    between atoms: _86  and  _88
REMARK   36  A    between atoms: _88  and  _89
REMARK   37  A    between atoms: _88  and  _91
REMARK   38  A    between atoms: _94  and  _96
REMARK   39  A    between atoms: _96  and  _97
REMARK   40  A    between atoms: _96  and  _99
REMARK   41  A    between atoms: _99  and  _100
REMARK   42  A    between atoms: _105  and  _106
REMARK   43  A    between atoms: _108  and  _110
REMARK   44  A    between atoms: _110  and  _111
REMARK   45  A    between atoms: _110  and  _113
REMARK   46  A    between atoms: _113  and  _114
REMARK   47  A    between atoms: _114  and  _115
REMARK   48  A    between atoms: _115  and  _116
REMARK   49  A    between atoms: _116  and  _117
REMARK   50  A    between atoms: _121  and  _123
REMARK   51  A    between atoms: _123  and  _124
REMARK   52  A    between atoms: _127  and  _129
REMARK   53  A    between atoms: _129  and  _130
REMARK   54  A    between atoms: _129  and  _132
REMARK   55  A    between atoms: _132  and  _133
REMARK   56  A    between atoms: _138  and  _139
REMARK   57  A    between atoms: _141  and  _143
REMARK   58  A    between atoms: _143  and  _144
REMARK   59  A    between atoms: _147  and  _149
REMARK   60  A    between atoms: _149  and  _150
REMARK   61  A    between atoms: _149  and  _152
REMARK   62  A    between atoms: _152  and  _153
REMARK   63  A    between atoms: _156  and  _158
REMARK   64  A    between atoms: _158  and  _159
REMARK   65  A    between atoms: _158  and  _161
REMARK   66  A    between atoms: _161  and  _162
REMARK   67  A    between atoms: _162  and  _163
REMARK   68  A    between atoms: _163  and  _164
REMARK   69  A    between atoms: _164  and  _165
REMARK   70  A    between atoms: _169  and  _171
REMARK   71  A    between atoms: _171  and  _172
REMARK   72  A    between atoms: _171  and  _174
REMARK   73  A    between atoms: _174  and  _175
REMARK   74  A    between atoms: _175  and  _176
REMARK   75  A    between atoms: _181  and  _183
REMARK   76  A    between atoms: _183  and  _184
REMARK   77  A    between atoms: _183  and  _186
REMARK   78  A    between atoms: _186  and  _187
REMARK   79  A    between atoms: _190  and  _192
REMARK   80  A    between atoms: _192  and  _193
REMARK   81  A    between atoms: _192  and  _195
REMARK   82  A    between atoms: _195  and  _196
REMARK   83  A    between atoms: _198  and  _200
REMARK   84  A    between atoms: _200  and  _201
REMARK   85  A    between atoms: _200  and  _203
REMARK   86  A    between atoms: _203  and  _204
REMARK   87  A    between atoms: _204  and  _205
REMARK   88  A    between atoms: _207  and  _209
REMARK   89  A    between atoms: _209  and  _210
REMARK   90  A    between atoms: _209  and  _212
REMARK   91  A    between atoms: _212  and  _213
REMARK   92  A    between atoms: _215  and  _217
REMARK   93  A    between atoms: _217  and  _218
REMARK   94  A    between atoms: _221  and  _223
REMARK   95  A    between atoms: _223  and  _224
REMARK   96  A    between atoms: _223  and  _226
REMARK   97  A    between atoms: _228  and  _230
REMARK   98  A    between atoms: _230  and  _231
REMARK   99  A    between atoms: _230  and  _233
REMARK  100  A    between atoms: _233  and  _234
REMARK  101  A    between atoms: _234  and  _235
REMARK  102  A    between atoms: _235  and  _236
REMARK  103  A    between atoms: _245  and  _247
REMARK  104  A    between atoms: _247  and  _248
REMARK  105  A    between atoms: _247  and  _250
REMARK  106  A    between atoms: _250  and  _251
REMARK  107  A    between atoms: _251  and  _252
REMARK  108  A    between atoms: _255  and  _257
REMARK  109  A    between atoms: _257  and  _258
REMARK  110  A    between atoms: _257  and  _260
REMARK  111  A    between atoms: _260  and  _261
REMARK  112  A    between atoms: _264  and  _266
REMARK  113  A    between atoms: _266  and  _267
REMARK  114  A    between atoms: _270  and  _272
REMARK  115  A    between atoms: _272  and  _273
REMARK  116  A    between atoms: _272  and  _275
REMARK  117  A    between atoms: _275  and  _276
REMARK  118  A    between atoms: _279  and  _281
REMARK  119  A    between atoms: _281  and  _282
REMARK  120  A    between atoms: _281  and  _284
REMARK  121  A    between atoms: _284  and  _285
REMARK  122  A    between atoms: _288  and  _290
REMARK  123  A    between atoms: _290  and  _291
REMARK  124  A    between atoms: _290  and  _293
REMARK  125  A    between atoms: _293  and  _294
REMARK  126  A    between atoms: _297  and  _299
REMARK  127  A    between atoms: _299  and  _300
REMARK  128  A    between atoms: _299  and  _302
REMARK  129  A    between atoms: _302  and  _303
REMARK  130  A    between atoms: _308  and  _310
REMARK  131  A    between atoms: _310  and  _311
REMARK  132  A    between atoms: _310  and  _313
REMARK  133  A    between atoms: _316  and  _318
REMARK  134  A    between atoms: _318  and  _319
REMARK  135  A    between atoms: _318  and  _321
REMARK  136  A    between atoms: _321  and  _322
REMARK  137  A    between atoms: _325  and  _327
REMARK  138  A    between atoms: _327  and  _328
REMARK  139  A    between atoms: _327  and  _330
REMARK  140  A    between atoms: _330  and  _331
REMARK  141  A    between atoms: _333  and  _335
REMARK  142  A    between atoms: _335  and  _336
REMARK  143  A    between atoms: _335  and  _338
REMARK  144  A    between atoms: _338  and  _339
REMARK  145  A    between atoms: _342  and  _344
REMARK  146  A    between atoms: _344  and  _345
REMARK  147  A    between atoms: _344  and  _347
REMARK  148  A    between atoms: _347  and  _348
REMARK  149  A    between atoms: _351  and  _353
REMARK  150  A    between atoms: _353  and  _354
REMARK  151  A    between atoms: _353  and  _356
REMARK  152  A    between atoms: _356  and  _357
REMARK  153  A    between atoms: _360  and  _362
REMARK  154  A    between atoms: _362  and  _363
REMARK  155  A    between atoms: _362  and  _365
REMARK  156  A    between atoms: _365  and  _366
REMARK  157  A    between atoms: _372  and  _374
REMARK  158  A    between atoms: _374  and  _375
REMARK  159  A    between atoms: _374  and  _377
REMARK  160  A    between atoms: _377  and  _378
REMARK  161  A    between atoms: _381  and  _383
REMARK  162  A    between atoms: _383  and  _384
REMARK  163  A    between atoms: _383  and  _386
REMARK  164  A    between atoms: _386  and  _387
REMARK  165  A    between atoms: _392  and  _393
REMARK  166  A    between atoms: _395  and  _397
REMARK  167  A    between atoms: _397  and  _398
REMARK  168  A    between atoms: _401  and  _403
REMARK  169  A    between atoms: _403  and  _404
REMARK  170  A    between atoms: _403  and  _406
REMARK  171  A    between atoms: _406  and  _407
REMARK  172  A    between atoms: _407  and  _408
REMARK  173  A    between atoms: _411  and  _413
REMARK  174  A    between atoms: _413  and  _414
REMARK  175  A    between atoms: _413  and  _416
REMARK  176  A    between atoms: _416  and  _417
REMARK  177  A    between atoms: _422  and  _424
REMARK  178  A    between atoms: _424  and  _425
REMARK  179  A    between atoms: _424  and  _427
REMARK  180  A    between atoms: _427  and  _428
REMARK  181  A    between atoms: _431  and  _433
REMARK  182  A    between atoms: _433  and  _434
REMARK  183  A    between atoms: _433  and  _436
REMARK  184  A    between atoms: _436  and  _437
REMARK  185  A    between atoms: _440  and  _442
REMARK  186  A    between atoms: _442  and  _443
REMARK  187  A    between atoms: _442  and  _445
REMARK  188  A    between atoms: _445  and  _446
REMARK  189  A    between atoms: _456  and  _458
REMARK  190  A    between atoms: _458  and  _459
REMARK  191  A    between atoms: _458  and  _461
REMARK  192  A    between atoms: _461  and  _462
REMARK  193  A    between atoms: _467  and  _469
REMARK  194  A    between atoms: _469  and  _470
REMARK  195  A    between atoms: _469  and  _472
REMARK  196  A    between atoms: _472  and  _473
REMARK  197  A    between atoms: _476  and  _478
REMARK  198  A    between atoms: _478  and  _479
REMARK  199  A    between atoms: _478  and  _481
REMARK  200  A    between atoms: _481  and  _482
REMARK  201  A    between atoms: _482  and  _483
REMARK  202  A    between atoms: _483  and  _484
REMARK  203  A    between atoms: _484  and  _485
REMARK  204  A    between atoms: _489  and  _491
REMARK  205  A    between atoms: _491  and  _492
REMARK  206  A    between atoms: _494  and  _496
REMARK  207  A    between atoms: _496  and  _497
REMARK  208  A    between atoms: _496  and  _499
REMARK  209  A    between atoms: _499  and  _500
REMARK  210  A    between atoms: _503  and  _505
REMARK  211  A    between atoms: _505  and  _506
REMARK  212  A    between atoms: _505  and  _508
REMARK  213  A    between atoms: _508  and  _509
REMARK  214  A    between atoms: _514  and  _515
REMARK  215  A    between atoms: _517  and  _519
REMARK  216  A    between atoms: _519  and  _520
REMARK  217  A    between atoms: _519  and  _522
REMARK  218  A    between atoms: _522  and  _523
REMARK  219  A    between atoms: _526  and  _528
REMARK  220  A    between atoms: _528  and  _529
REMARK  221  A    between atoms: _528  and  _531
REMARK  222  A    between atoms: _534  and  _536
REMARK  223  A    between atoms: _536  and  _537
REMARK  224  A    between atoms: _536  and  _539
REMARK  225  A    between atoms: _539  and  _540
REMARK  226  A    between atoms: _543  and  _545
REMARK  227  A    between atoms: _545  and  _546
REMARK  228  A    between atoms: _545  and  _548
REMARK  229  A    between atoms: _548  and  _549
REMARK  230  A    between atoms: _554  and  _556
REMARK  231  A    between atoms: _556  and  _557
REMARK  232  A    between atoms: _556  and  _559
REMARK  233  A    between atoms: _559  and  _560
REMARK  234  A    between atoms: _560  and  _561
REMARK  235  A    between atoms: _561  and  _562
REMARK  236  A    between atoms: _571  and  _573
REMARK  237  A    between atoms: _573  and  _574
REMARK  238  A    between atoms: _573  and  _576
REMARK  239  A    between atoms: _576  and  _577
REMARK  240  A    between atoms: _580  and  _582
REMARK  241  A    between atoms: _582  and  _583
REMARK  242  A    between atoms: _582  and  _585
REMARK  243  A    between atoms: _585  and  _586
REMARK  244  A    between atoms: _589  and  _591
REMARK  245  A    between atoms: _591  and  _592
REMARK  246  A    between atoms: _591  and  _594
REMARK  247  A    between atoms: _594  and  _595
REMARK  248  A    between atoms: _595  and  _596
REMARK  249  A    between atoms: _596  and  _597
REMARK  250  A    between atoms: _597  and  _598
REMARK  251  A    between atoms: _603  and  _604
REMARK  252  A    between atoms: _609  and  _611
REMARK  253  A    between atoms: _611  and  _612
REMARK  254  A    between atoms: _615  and  _617
REMARK  255  A    between atoms: _617  and  _618
REMARK  256  A    between atoms: _617  and  _620
REMARK  257  A    between atoms: _620  and  _621
REMARK  258  A    between atoms: _626  and  _628
REMARK  259  A    between atoms: _628  and  _629
REMARK  260  A    between atoms: _628  and  _631
REMARK  261  A    between atoms: _631  and  _632
REMARK  262  A    between atoms: _635  and  _637
REMARK  263  A    between atoms: _637  and  _638
REMARK  264  A    between atoms: _637  and  _640
REMARK  265  A    between atoms: _640  and  _641
REMARK  266  A    between atoms: _644  and  _646
REMARK  267  A    between atoms: _646  and  _647
REMARK  268  A    between atoms: _646  and  _649
REMARK  269  A    between atoms: _652  and  _654
REMARK  270  A    between atoms: _654  and  _655
REMARK  271  A    between atoms: _654  and  _657
REMARK  272  A    between atoms: _657  and  _658
REMARK  273  A    between atoms: _658  and  _659
REMARK  274  A    between atoms: _659  and  _660
REMARK  275  A    between atoms: _660  and  _661
REMARK  276  A    between atoms: _665  and  _667
REMARK  277  A    between atoms: _667  and  _668
REMARK  278  A    between atoms: _667  and  _670
REMARK  279  A    between atoms: _670  and  _671
REMARK  280  A    between atoms: _674  and  _676
REMARK  281  A    between atoms: _676  and  _677
REMARK  282  A    between atoms: _680  and  _682
REMARK  283  A    between atoms: _682  and  _683
REMARK  284  A    between atoms: _682  and  _685
REMARK  285  A    between atoms: _685  and  _686
REMARK  286  A    between atoms: _689  and  _691
REMARK  287  A    between atoms: _691  and  _692
REMARK  288  A    between atoms: _691  and  _694
REMARK  289  A    between atoms: _694  and  _695
REMARK  290  A    between atoms: _695  and  _696
REMARK  291  A    between atoms: _698  and  _700
REMARK  292  A    between atoms: _700  and  _701
REMARK  293  A    between atoms: _703  and  _705
REMARK  294  A    between atoms: _705  and  _706
REMARK  295  A    between atoms: _705  and  _708
REMARK  296  A    between atoms: _708  and  _709
REMARK  297  A    between atoms: _715  and  _717
REMARK  298  A    between atoms: _717  and  _718
REMARK  299  A    between atoms: _721  and  _723
REMARK  300  A    between atoms: _723  and  _724
REMARK  301  A    between atoms: _723  and  _726
REMARK  302  A    between atoms: _726  and  _727
REMARK  303  A    between atoms: _727  and  _728
REMARK  304  A    between atoms: _728  and  _729
REMARK  305  A    between atoms: _738  and  _740
REMARK  306  A    between atoms: _740  and  _741
REMARK  307  A    between atoms: _740  and  _743
REMARK  308  A    between atoms: _743  and  _744
REMARK  309  A    between atoms: _744  and  _745
REMARK                            x       y       z     vdW  Elec       q    Type
REMARK                         _______ _______ _______ _____ _____    ______ ____
ROOT
ATOM      1  CA  TYR A   1      49.844  52.813 156.121  0.00  0.00    +0.149 C 
ENDROOT
BRANCH   1   2
ATOM      2  C   TYR A   1      48.332  52.836 156.425  0.00  0.00    +0.239 C 
ATOM      3  O   TYR A   1      47.938  53.211 157.516  0.00  0.00    -0.274 OA
ATOM      4  N   LEU A   2      47.498  52.420 155.471  0.00  0.00    -0.298 N 
ATOM      5  H   LEU A   2      47.882  52.119 154.552  0.00  0.00    +0.150 HD
BRANCH   4   6
ATOM      6  CA  LEU A   2      46.037  52.379 155.697  0.00  0.00    +0.137 C 
BRANCH   6   7
ATOM      7  C   LEU A   2      45.695  51.395 156.812  0.00  0.00    +0.227 C 
ATOM      8  O   LEU A   2      44.978  51.742 157.748  0.00  0.00    -0.286 OA
ENDBRANCH   6   7
BRANCH   6   9
ATOM      9  CB  LEU A   2      45.277  52.045 154.402  0.00  0.00    +0.028 C 
BRANCH   9  10
ATOM     10  CG  LEU A   2      45.409  53.081 153.281  0.00  0.00    +0.002 C 
ATOM     11  CD2 LEU A   2      44.847  54.448 153.710  0.00  0.00    +0.000 C 
ATOM     12  CD1 LEU A   2      44.745  52.592 152.005  0.00  0.00    +0.000 C 
ENDBRANCH   9  10
ENDBRANCH   6   9
ENDBRANCH   4   6
ENDBRANCH   1   2
BRANCH   1  13
ATOM     13  N   TYR A   1      50.247  51.539 155.496  0.00  0.00    -0.238 NA
ATOM     14  H   TYR A   1      50.634  51.550 154.531  0.00  0.00    +0.142 HD
ENDBRANCH   1  13
BRANCH   1  15
ATOM     15  CB  TYR A   1      50.214  54.006 155.232  0.00  0.00    +0.053 C 
BRANCH  15  16
ATOM     16  CG  TYR A   1      49.683  55.320 155.728  0.00  0.00    -0.020 A 
ATOM     17  CD2 TYR A   1      50.258  55.947 156.833  0.00  0.00    -0.001 A 
ATOM     18  CE2 TYR A   1      49.782  57.171 157.301  0.00  0.00    +0.036 A 
ATOM     19  CZ  TYR A   1      48.699  57.770 156.677  0.00  0.00    +0.134 A 
ATOM     20  CE1 TYR A   1      48.116  57.169 155.567  0.00  0.00    +0.036 A 
ATOM     21  CD1 TYR A   1      48.609  55.944 155.097  0.00  0.00    -0.001 A 
BRANCH  19  22
ATOM     22  OH  TYR A   1      48.209  58.980 157.160  0.00  0.00    -0.506 OA
ATOM     23  HH  TYR A   1      48.739  59.258 157.948  0.00  0.00    +0.292 HD
ENDBRANCH  19  22
ENDBRANCH  15  16
ENDBRANCH   1  15
TORSDOF 9
REMARK  Name = ../refined-set-2016/4f6w/4f6w_pocket.pdb
REMARK  309 active torsions:
REMARK  status: ('A' for Active; 'I' for Inactive)
REMARK    1  A    between atoms: _1  and  _3
REMARK    2  A    between atoms: _3  and  _4
REMARK    3  A    between atoms: _3  and  _6
REMARK    4  A    between atoms: _8  and  _10
REMARK    5  A    between atoms: _10  and  _11
REMARK    6  A    between atoms: _10  and  _13
REMARK    7  A    between atoms: _13  and  _14
REMARK    8  A    between atoms: _14  and  _15
REMARK    9  A    between atoms: _15  and  _16
REMARK   10  A    between atoms: _16  and  _17
REMARK   11  A    between atoms: _21  and  _23
REMARK   12  A    between atoms: _23  and  _24
REMARK   13  A    between atoms: _23  and  _26
REMARK   14  A    between atoms: _29  and  _31
REMARK   15  A    between atoms: _31  and  _32
REMARK   16  A    between atoms: _34  and  _36
REMARK   17  A    between atoms: _36  and  _37
REMARK   18  A    between atoms: _36  and  _39
REMARK   19  A    between atoms: _39  and  _40
REMARK   20  A    between atoms: _40  and  _41
REMARK   21  A    between atoms: _41  and  _42
REMARK   22  A    between atoms: _51  and  _53
REMARK   23  A    between atoms: _53  and  _54
REMARK   24  A    between atoms: _56  and  _58
REMARK   25  A    between atoms: _58  and  _59
REMARK   26  A    between atoms: _58  and  _61
REMARK   27  A    between atoms: _61  and  _62
REMARK   28  A    between atoms: _67  and  _68
REMARK   29  A    between atoms: _70  and  _72
REMARK   30  A    between atoms: _72  and  _73
REMARK   31  A    between atoms: _75  and  _77
REMARK   32  A    between atoms: _77  and  _78
REMARK   33  A    between atoms: _77  and  _80
REMARK   34  A    between atoms: _80  and  _81
REMARK   35  A    between atoms: _86  and  _88
REMARK   36  A    between atoms: _88  and  _89
REMARK   37  A    between atoms: _88  and  _91
REMARK   38  A    between atoms: _94  and  _96
REMARK   39  A    between atoms: _96  and  _97
REMARK   40  A    between atoms: _96  and  _99
REMARK   41  A    between atoms: _99  and  _100
REMARK   42  A    between atoms: _105  and  _106
REMARK   43  A    between atoms: _108  and  _110
REMARK   44  A    between atoms: _110  and  _111
REMARK   45  A    between atoms: _110  and  _113
REMARK   46  A    between atoms: _113  and  _114
REMARK   47  A    between atoms: _114  and  _115
REMARK   48  A    between atoms: _115  and  _116
REMARK   49  A    between atoms: _116  and  _117
REMARK   50  A    between atoms: _121  and  _123
REMARK   51  A    between atoms: _123  and  _124
REMARK   52  A    between atoms: _127  and  _129
REMARK   53  A    between atoms: _129  and  _130
REMARK   54  A    between atoms: _129  and  _132
REMARK   55  A    between atoms: _132  and  _133
REMARK   56  A    between atoms: _138  and  _139
REMARK   57  A    between atoms: _141  and  _143
REMARK   58  A    between atoms: _143  and  _144
REMARK   59  A    between atoms: _147  and  _149
REMARK   60  A    between atoms: _149  and  _150
REMARK   61  A    between atoms: _149  and  _152
REMARK   62  A    between atoms: _152  and  _153
REMARK   63  A    between atoms: _156  and  _158
REMARK   64  A    between atoms: _158  and  _159
REMARK   65  A    between atoms: _158  and  _161
REMARK   66  A    between atoms: _161  and  _162
REMARK   67  A    between atoms: _162  and  _163
REMARK   68  A    between atoms: _163  and  _164
REMARK   69  A    between atoms: _164  and  _165
REMARK   70  A    between atoms: _169  and  _171
REMARK   71  A    between atoms: _171  and  _172
REMARK   72  A    between atoms: _171  and  _174
REMARK   73  A    between atoms: _174  and  _175
REMARK   74  A    between atoms: _175  and  _176
REMARK   75  A    between atoms: _181  and  _183
REMARK   76  A    between atoms: _183  and  _184
REMARK   77  A    between atoms: _183  and  _186
REMARK   78  A    between atoms: _186  and  _187
REMARK   79  A    between atoms: _190  and  _192
REMARK   80  A    between atoms: _192  and  _193
REMARK   81  A    between atoms: _192  and  _195
REMARK   82  A    between atoms: _195  and  _196
REMARK   83  A    between atoms: _198  and  _200
REMARK   84  A    between atoms: _200  and  _201
REMARK   85  A    between atoms: _200  and  _203
REMARK   86  A    between atoms: _203  and  _204
REMARK   87  A    between atoms: _204  and  _205
REMARK   88  A    between atoms: _207  and  _209
REMARK   89  A    between atoms: _209  and  _210
REMARK   90  A    between atoms: _209  and  _212
REMARK   91  A    between atoms: _212  and  _213
REMARK   92  A    between atoms: _215  and  _217
REMARK   93  A    between atoms: _217  and  _218
REMARK   94  A    between atoms: _221  and  _223
REMARK   95  A    between atoms: _223  and  _224
REMARK   96  A    between atoms: _223  and  _226
REMARK   97  A    between atoms: _228  and  _230
REMARK   98  A    between atoms: _230  and  _231
REMARK   99  A    between atoms: _230  and  _233
REMARK  100  A    between atoms: _233  and  _234
REMARK  101  A    between atoms: _234  and  _235
REMARK  102  A    between atoms: _235  and  _236
REMARK  103  A    between atoms: _245  and  _247
REMARK  104  A    between atoms: _247  and  _248
REMARK  105  A    between atoms: _247  and  _250
REMARK  106  A    between atoms: _250  and  _251
REMARK  107  A    between atoms: _251  and  _252
REMARK  108  A    between atoms: _255  and  _257
REMARK  109  A    between atoms: _257  and  _258
REMARK  110  A    between atoms: _257  and  _260
REMARK  111  A    between atoms: _260  and  _261
REMARK  112  A    between atoms: _264  and  _266
REMARK  113  A    between atoms: _266  and  _267
REMARK  114  A    between atoms: _270  and  _272
REMARK  115  A    between atoms: _272  and  _273
REMARK  116  A    between atoms: _272  and  _275
REMARK  117  A    between atoms: _275  and  _276
REMARK  118  A    between atoms: _279  and  _281
REMARK  119  A    between atoms: _281  and  _282
REMARK  120  A    between atoms: _281  and  _284
REMARK  121  A    between atoms: _284  and  _285
REMARK  122  A    between atoms: _288  and  _290
REMARK  123  A    between atoms: _290  and  _291
REMARK  124  A    between atoms: _290  and  _293
REMARK  125  A    between atoms: _293  and  _294
REMARK  126  A    between atoms: _297  and  _299
REMARK  127  A    between atoms: _299  and  _300
REMARK  128  A    between atoms: _299  and  _302
REMARK  129  A    between atoms: _302  and  _303
REMARK  130  A    between atoms: _308  and  _310
REMARK  131  A    between atoms: _310  and  _311
REMARK  132  A    between atoms: _310  and  _313
REMARK  133  A    between atoms: _316  and  _318
REMARK  134  A    between atoms: _318  and  _319
REMARK  135  A    between atoms: _318  and  _321
REMARK  136  A    between atoms: _321  and  _322
REMARK  137  A    between atoms: _325  and  _327
REMARK  138  A    between atoms: _327  and  _328
REMARK  139  A    between atoms: _327  and  _330
REMARK  140  A    between atoms: _330  and  _331
REMARK  141  A    between atoms: _333  and  _335
REMARK  142  A    between atoms: _335  and  _336
REMARK  143  A    between atoms: _335  and  _338
REMARK  144  A    between atoms: _338  and  _339
REMARK  145  A    between atoms: _342  and  _344
REMARK  146  A    between atoms: _344  and  _345
REMARK  147  A    between atoms: _344  and  _347
REMARK  148  A    between atoms: _347  and  _348
REMARK  149  A    between atoms: _351  and  _353
REMARK  150  A    between atoms: _353  and  _354
REMARK  151  A    between atoms: _353  and  _356
REMARK  152  A    between atoms: _356  and  _357
REMARK  153  A    between atoms: _360  and  _362
REMARK  154  A    between atoms: _362  and  _363
REMARK  155  A    between atoms: _362  and  _365
REMARK  156  A    between atoms: _365  and  _366
REMARK  157  A    between atoms: _372  and  _374
REMARK  158  A    between atoms: _374  and  _375
REMARK  159  A    between atoms: _374  and  _377
REMARK  160  A    between atoms: _377  and  _378
REMARK  161  A    between atoms: _381  and  _383
REMARK  162  A    between atoms: _383  and  _384
REMARK  163  A    between atoms: _383  and  _386
REMARK  164  A    between atoms: _386  and  _387
REMARK  165  A    between atoms: _392  and  _393
REMARK  166  A    between atoms: _395  and  _397
REMARK  167  A    between atoms: _397  and  _398
REMARK  168  A    between atoms: _401  and  _403
REMARK  169  A    between atoms: _403  and  _404
REMARK  170  A    between atoms: _403  and  _406
REMARK  171  A    between atoms: _406  and  _407
REMARK  172  A    between atoms: _407  and  _408
REMARK  173  A    between atoms: _411  and  _413
REMARK  174  A    between atoms: _413  and  _414
REMARK  175  A    between atoms: _413  and  _416
REMARK  176  A    between atoms: _416  and  _417
REMARK  177  A    between atoms: _422  and  _424
REMARK  178  A    between atoms: _424  and  _425
REMARK  179  A    between atoms: _424  and  _427
REMARK  180  A    between atoms: _427  and  _428
REMARK  181  A    between atoms: _431  and  _433
REMARK  182  A    between atoms: _433  and  _434
REMARK  183  A    between atoms: _433  and  _436
REMARK  184  A    between atoms: _436  and  _437
REMARK  185  A    between atoms: _440  and  _442
REMARK  186  A    between atoms: _442  and  _443
REMARK  187  A    between atoms: _442  and  _445
REMARK  188  A    between atoms: _445  and  _446
REMARK  189  A    between atoms: _456  and  _458
REMARK  190  A    between atoms: _458  and  _459
REMARK  191  A    between atoms: _458  and  _461
REMARK  192  A    between atoms: _461  and  _462
REMARK  193  A    between atoms: _467  and  _469
REMARK  194  A    between atoms: _469  and  _470
REMARK  195  A    between atoms: _469  and  _472
REMARK  196  A    between atoms: _472  and  _473
REMARK  197  A    between atoms: _476  and  _478
REMARK  198  A    between atoms: _478  and  _479
REMARK  199  A    between atoms: _478  and  _481
REMARK  200  A    between atoms: _481  and  _482
REMARK  201  A    between atoms: _482  and  _483
REMARK  202  A    between atoms: _483  and  _484
REMARK  203  A    between atoms: _484  and  _485
REMARK  204  A    between atoms: _489  and  _491
REMARK  205  A    between atoms: _491  and  _492
REMARK  206  A    between atoms: _494  and  _496
REMARK  207  A    between atoms: _496  and  _497
REMARK  208  A    between atoms: _496  and  _499
REMARK  209  A    between atoms: _499  and  _500
REMARK  210  A    between atoms: _503  and  _505
REMARK  211  A    between atoms: _505  and  _506
REMARK  212  A    between atoms: _505  and  _508
REMARK  213  A    between atoms: _508  and  _509
REMARK  214  A    between atoms: _514  and  _515
REMARK  215  A    between atoms: _517  and  _519
REMARK  216  A    between atoms: _519  and  _520
REMARK  217  A    between atoms: _519  and  _522
REMARK  218  A    between atoms: _522  and  _523
REMARK  219  A    between atoms: _526  and  _528
REMARK  220  A    between atoms: _528  and  _529
REMARK  221  A    between atoms: _528  and  _531
REMARK  222  A    between atoms: _534  and  _536
REMARK  223  A    between atoms: _536  and  _537
REMARK  224  A    between atoms: _536  and  _539
REMARK  225  A    between atoms: _539  and  _540
REMARK  226  A    between atoms: _543  and  _545
REMARK  227  A    between atoms: _545  and  _546
REMARK  228  A    between atoms: _545  and  _548
REMARK  229  A    between atoms: _548  and  _549
REMARK  230  A    between atoms: _554  and  _556
REMARK  231  A    between atoms: _556  and  _557
REMARK  232  A    between atoms: _556  and  _559
REMARK  233  A    between atoms: _559  and  _560
REMARK  234  A    between atoms: _560  and  _561
REMARK  235  A    between atoms: _561  and  _562
REMARK  236  A    between atoms: _571  and  _573
REMARK  237  A    between atoms: _573  and  _574
REMARK  238  A    between atoms: _573  and  _576
REMARK  239  A    between atoms: _576  and  _577
REMARK  240  A    between atoms: _580  and  _582
REMARK  241  A    between atoms: _582  and  _583
REMARK  242  A    between atoms: _582  and  _585
REMARK  243  A    between atoms: _585  and  _586
REMARK  244  A    between atoms: _589  and  _591
REMARK  245  A    between atoms: _591  and  _592
REMARK  246  A    between atoms: _591  and  _594
REMARK  247  A    between atoms: _594  and  _595
REMARK  248  A    between atoms: _595  and  _596
REMARK  249  A    between atoms: _596  and  _597
REMARK  250  A    between atoms: _597  and  _598
REMARK  251  A    between atoms: _603  and  _604
REMARK  252  A    between atoms: _609  and  _611
REMARK  253  A    between atoms: _611  and  _612
REMARK  254  A    between atoms: _615  and  _617
REMARK  255  A    between atoms: _617  and  _618
REMARK  256  A    between atoms: _617  and  _620
REMARK  257  A    between atoms: _620  and  _621
REMARK  258  A    between atoms: _626  and  _628
REMARK  259  A    between atoms: _628  and  _629
REMARK  260  A    between atoms: _628  and  _631
REMARK  261  A    between atoms: _631  and  _632
REMARK  262  A    between atoms: _635  and  _637
REMARK  263  A    between atoms: _637  and  _638
REMARK  264  A    between atoms: _637  and  _640
REMARK  265  A    between atoms: _640  and  _641
REMARK  266  A    between atoms: _644  and  _646
REMARK  267  A    between atoms: _646  and  _647
REMARK  268  A    between atoms: _646  and  _649
REMARK  269  A    between atoms: _652  and  _654
REMARK  270  A    between atoms: _654  and  _655
REMARK  271  A    between atoms: _654  and  _657
REMARK  272  A    between atoms: _657  and  _658
REMARK  273  A    between atoms: _658  and  _659
REMARK  274  A    between atoms: _659  and  _660
REMARK  275  A    between atoms: _660  and  _661
REMARK  276  A    between atoms: _665  and  _667
REMARK  277  A    between atoms: _667  and  _668
REMARK  278  A    between atoms: _667  and  _670
REMARK  279  A    between atoms: _670  and  _671
REMARK  280  A    between atoms: _674  and  _676
REMARK  281  A    between atoms: _676  and  _677
REMARK  282  A    between atoms: _680  and  _682
REMARK  283  A    between atoms: _682  and  _683
REMARK  284  A    between atoms: _682  and  _685
REMARK  285  A    between atoms: _685  and  _686
REMARK  286  A    between atoms: _689  and  _691
REMARK  287  A    between atoms: _691  and  _692
REMARK  288  A    between atoms: _691  and  _694
REMARK  289  A    between atoms: _694  and  _695
REMARK  290  A    between atoms: _695  and  _696
REMARK  291  A    between atoms: _698  and  _700
REMARK  292  A    between atoms: _700  and  _701
REMARK  293  A    between atoms: _703  and  _705
REMARK  294  A    between atoms: _705  and  _706
REMARK  295  A    between atoms: _705  and  _708
REMARK  296  A    between atoms: _708  and  _709
REMARK  297  A    between atoms: _715  and  _717
REMARK  298  A    between atoms: _717  and  _718
REMARK  299  A    between atoms: _721  and  _723
REMARK  300  A    between atoms: _723  and  _724
REMARK  301  A    between atoms: _723  and  _726
REMARK  302  A    between atoms: _726  and  _727
REMARK  303  A    between atoms: _727  and  _728
REMARK  304  A    between atoms: _728  and  _729
REMARK  305  A    between atoms: _738  and  _740
REMARK  306  A    between atoms: _740  and  _741
REMARK  307  A    between atoms: _740  and  _743
REMARK  308  A    between atoms: _743  and  _744
REMARK  309  A    between atoms: _744  and  _745
REMARK                            x       y       z     vdW  Elec       q    Type
REMARK                         _______ _______ _______ _____ _____    ______ ____
ROOT
ATOM      1  C   LEU A   6      41.815  45.824 144.402  0.00  0.00    +0.241 C 
ATOM      2  O   LEU A   6      41.384  44.676 144.384  0.00  0.00    -0.273 OA
ATOM      3  N   LYS A   7      42.228  46.477 143.322  0.00  0.00    -0.297 N 
ATOM      4  H   LYS A   7      42.542  47.462 143.435  0.00  0.00    +0.150 HD
ENDROOT
BRANCH   1   5
ATOM      5  CA  LEU A   6      41.868  46.610 145.699  0.00  0.00    +0.149 C 
BRANCH   5   7
ATOM      6  C   ASP A   5      39.482  47.042 145.821  0.00  0.00    +0.241 C 
ATOM      7  N   LEU A   6      40.579  46.532 146.368  0.00  0.00    -0.297 N 
ATOM      8  H   LEU A   6      40.515  46.066 147.296  0.00  0.00    +0.150 HD
ATOM      9  O   ASP A   5      39.486  47.620 144.737  0.00  0.00    -0.273 OA
BRANCH   6  10
ATOM     10  CA  ASP A   5      38.181  46.852 146.595  0.00  0.00    +0.160 C 
BRANCH  10  13
ATOM     11  C   ARG A   4      37.571  46.433 148.920  0.00  0.00    +0.241 C 
ATOM     12  O   ARG A   4      36.623  45.717 148.596  0.00  0.00    -0.273 OA
ATOM     13  N   ASP A   5      38.358  47.028 148.030  0.00  0.00    -0.297 N 
ATOM     14  H   ASP A   5      39.127  47.640 148.370  0.00  0.00    +0.150 HD
BRANCH  11  15
ATOM     15  CA  ARG A   4      37.899  46.651 150.404  0.00  0.00    +0.149 C 
BRANCH  15  17
ATOM     16  C   HIS A   3      39.197  48.765 150.741  0.00  0.00    +0.241 C 
ATOM     17  N   ARG A   4      39.136  47.432 150.702  0.00  0.00    -0.297 N 
ATOM     18  H   ARG A   4      40.010  46.901 150.892  0.00  0.00    +0.150 HD
ATOM     19  O   HIS A   3      38.300  49.503 150.354  0.00  0.00    -0.273 OA
BRANCH  16  20
ATOM     20  CA  HIS A   3      40.504  49.364 151.249  0.00  0.00    +0.155 C 
BRANCH  20  23
ATOM     21  C   LEU A   2      40.225  49.359 153.649  0.00  0.00    +0.241 C 
ATOM     22  O   LEU A   2      39.426  50.278 153.586  0.00  0.00    -0.273 OA
ATOM     23  N   HIS A   3      40.802  48.842 152.573  0.00  0.00    -0.297 N 
ATOM     24  H   HIS A   3      41.474  48.055 152.677  0.00  0.00    +0.150 HD
BRANCH  21  25
ATOM     25  CA  LEU A   2      40.609  48.772 155.001  0.00  0.00    +0.149 C 
BRANCH  25  27
ATOM     26  C   VAL A   1      41.700  50.587 156.246  0.00  0.00    +0.238 C 
ATOM     27  N   LEU A   2      40.610  49.866 155.979  0.00  0.00    -0.297 N 
ATOM     28  H   LEU A   2      39.728  50.088 156.483  0.00  0.00    +0.150 HD
ATOM     29  O   VAL A   1      42.824  50.298 155.842  0.00  0.00    -0.274 OA
BRANCH  26  30
ATOM     30  CA  VAL A   1      41.510  51.775 157.165  0.00  0.00    +0.145 C 
BRANCH  30  31
ATOM     31  CB  VAL A   1      42.022  53.072 156.513  0.00  0.00    +0.025 C 
ATOM     32  CG2 VAL A   1      41.833  54.262 157.501  0.00  0.00    +0.002 C 
ATOM     33  CG1 VAL A   1      41.300  53.337 155.193  0.00  0.00    +0.002 C 
ENDBRANCH  30  31
BRANCH  30  34
ATOM     34  N   VAL A   1      42.247  51.457 158.370  0.00  0.00    -0.238 NA
ATOM     35  H   VAL A   1      43.286  51.498 158.345  0.00  0.00    +0.142 HD
ENDBRANCH  30  34
ENDBRANCH  26  30
ENDBRANCH  25  27
BRANCH  25  36
ATOM     36  CB  LEU A   2      39.615  47.680 155.422  0.00  0.00    +0.029 C 
BRANCH  36  37
ATOM     37  CG  LEU A   2      39.833  47.098 156.830  0.00  0.00    +0.002 C 
ATOM     38  CD2 LEU A   2      38.814  46.016 157.159  0.00  0.00    +0.000 C 
ATOM     39  CD1 LEU A   2      41.264  46.557 157.002  0.00  0.00    +0.000 C 
ENDBRANCH  36  37
ENDBRANCH  25  36
ENDBRANCH  21  25
ENDBRANCH  20  23
BRANCH  20  40
ATOM     40  CB  HIS A   3      41.641  49.101 150.260  0.00  0.00    +0.076 C 
BRANCH  40  41
ATOM     41  CG  HIS A   3      41.464  49.804 148.953  0.00  0.00    +0.082 A 
ATOM     42  CD2 HIS A   3      42.051  50.918 148.451  0.00  0.00    +0.115 A 
ATOM     43  NE2 HIS A   3      41.498  51.145 147.212  0.00  0.00    -0.221 NA
ATOM     44  CE1 HIS A   3      40.599  50.206 146.964  0.00  0.00    +0.199 A 
ATOM     45  ND1 HIS A   3      40.561  49.381 147.998  0.00  0.00    -0.227 NA
ENDBRANCH  40  41
ENDBRANCH  20  40
ENDBRANCH  16  20
ENDBRANCH  15  17
BRANCH  15  46
ATOM     46  CB  ARG A   4      36.681  47.209 151.161  0.00  0.00    +0.033 C 
BRANCH  46  47
ATOM     47  CG  ARG A   4      36.854  47.098 152.666  0.00  0.00    +0.045 C 
BRANCH  47  48
ATOM     48  CD  ARG A   4      36.387  48.274 153.458  0.00  0.00    +0.174 C 
BRANCH  48  49
ATOM     49  NE  ARG A   4      34.985  48.579 153.274  0.00  0.00    -0.265 N 
ATOM     50  CZ  ARG A   4      34.303  49.455 154.009  0.00  0.00    +0.342 C 
ATOM     51  NH2 ARG A   4      34.890  50.116 155.013  0.00  0.00    -0.292 N 
ATOM     52 HH21 ARG A   4      34.343  50.797 155.577  0.00  0.00    +0.255 HD
ATOM     53 HH22 ARG A   4      35.893  49.949 155.229  0.00  0.00    +0.255 HD
ATOM     54  NH1 ARG A   4      33.011  49.668 153.749  0.00  0.00    -0.292 N 
ATOM     55 HH11 ARG A   4      32.472  50.351 154.319  0.00  0.00    +0.255 HD
ATOM     56 HH12 ARG A   4      32.544  49.151 152.977  0.00  0.00    +0.255 HD
ATOM     57  HE  ARG A   4      34.475  48.081 152.517  0.00  0.00    +0.259 HD
ENDBRANCH  48  49
ENDBRANCH  47  48
ENDBRANCH  46  47
ENDBRANCH  15  46
ENDBRANCH  11  15
ENDBRANCH  10  13
BRANCH  10  58
ATOM     58  CB  ASP A   5      37.097  47.815 146.089  0.00  0.00    +0.143 C 
BRANCH  58  59
ATOM     59  CG  ASP A   5      36.526  47.417 144.724  0.00  0.00    +0.367 C 
ATOM     60  OD2 ASP A   5      36.492  46.211 144.395  0.00  0.00    -0.246 OA
ATOM     61  OD1 ASP A   5      36.096  48.328 143.984  0.00  0.00    -0.246 OA
ENDBRANCH  58  59
ENDBRANCH  10  58
ENDBRANCH   6  10
ENDBRANCH   5   7
BRANCH   5  62
ATOM     62  CB  LEU A   6      42.996  46.079 146.586  0.00  0.00    +0.029 C 
BRANCH  62  63
ATOM     63  CG  LEU A   6      43.551  47.050 147.623  0.00  0.00    +0.002 C 
ATOM     64  CD2 LEU A   6      44.363  46.301 148.686  0.00  0.00    +0.000 C 
ATOM     65  CD1 LEU A   6      44.401  48.141 146.943  0.00  0.00    +0.000 C 
ENDBRANCH  62  63
ENDBRANCH   5  62
ENDBRANCH   1   5
BRANCH   3  66
ATOM     66  CA  LYS A   7      42.266  45.891 141.984  0.00  0.00    +0.149 C 
BRANCH  66  67
ATOM     67  C   LYS A   7      43.094  46.836 141.100  0.00  0.00    +0.244 C 
ATOM     68  O   LYS A   7      43.395  47.950 141.536  0.00  0.00    -0.273 OA
ATOM     69  N   PRO A   8      43.481  46.401 139.878  0.00  0.00    -0.272 N 
ATOM     70  CD  PRO A   8      43.379  45.029 139.334  0.00  0.00    +0.094 C 
ATOM     71  CG  PRO A   8      44.406  45.011 138.232  0.00  0.00    +0.024 C 
ATOM     72  CB  PRO A   8      44.422  46.428 137.732  0.00  0.00    +0.031 C 
ATOM     73  CA  PRO A   8      44.326  47.246 139.020  0.00  0.00    +0.152 C 
BRANCH  73  74
ATOM     74  C   PRO A   8      43.805  48.660 138.737  0.00  0.00    +0.241 C 
ATOM     75  O   PRO A   8      44.593  49.606 138.710  0.00  0.00    -0.273 OA
ATOM     76  N   ALA A   9      42.499  48.802 138.552  0.00  0.00    -0.297 N 
ATOM     77  H   ALA A   9      41.889  47.961 138.600  0.00  0.00    +0.150 HD
BRANCH  76  78
ATOM     78  CA  ALA A   9      41.889  50.110 138.282  0.00  0.00    +0.149 C 
ATOM     79  CB  ALA A   9      40.406  49.933 137.993  0.00  0.00    +0.031 C 
BRANCH  78  80
ATOM     80  C   ALA A   9      42.094  51.131 139.415  0.00  0.00    +0.241 C 
ATOM     81  N   ASN A  10      42.249  50.633 140.643  0.00  0.00    -0.297 N 
ATOM     82  H   ASN A  10      42.225  49.599 140.755  0.00  0.00    +0.150 HD
ATOM     83  O   ALA A   9      42.101  52.333 139.166  0.00  0.00    -0.273 OA
BRANCH  81  84
ATOM     84  CA  ASN A  10      42.450  51.443 141.838  0.00  0.00    +0.158 C 
BRANCH  84  85
ATOM     85  C   ASN A  10      43.918  51.624 142.245  0.00  0.00    +0.241 C 
ATOM     86  O   ASN A  10      44.188  52.231 143.279  0.00  0.00    -0.273 OA
ATOM     87  N   ILE A  11      44.858  51.107 141.451  0.00  0.00    -0.297 N 
ATOM     88  H   ILE A  11      44.575  50.462 140.686  0.00  0.00    +0.150 HD
BRANCH  87  89
ATOM     89  CA  ILE A  11      46.278  51.423 141.626  0.00  0.00    +0.149 C 
BRANCH  89  90
ATOM     90  C   ILE A  11      46.619  52.428 140.537  0.00  0.00    +0.241 C 
ATOM     91  N   LEU A  12      46.774  53.692 140.932  0.00  0.00    -0.297 N 
ATOM     92  H   LEU A  12      46.621  53.925 141.934  0.00  0.00    +0.150 HD
ATOM     93  O   ILE A  11      46.688  52.075 139.367  0.00  0.00    -0.273 OA
BRANCH  91  94
ATOM     94  CA  LEU A  12      47.146  54.751 140.021  0.00  0.00    +0.149 C 
BRANCH  94  95
ATOM     95  C   LEU A  12      48.658  54.895 140.026  0.00  0.00    +0.241 C 
ATOM     96  O   LEU A  12      49.321  54.471 140.959  0.00  0.00    -0.273 OA
ATOM     97  N   VAL A  13      49.190  55.474 138.953  0.00  0.00    -0.298 N 
ATOM     98  H   VAL A  13      48.558  55.766 138.180  0.00  0.00    +0.150 HD
BRANCH  97  99
ATOM     99  CA  VAL A  13      50.611  55.716 138.814  0.00  0.00    +0.137 C 
BRANCH  99 100
ATOM    100  CB  VAL A  13      51.309  54.634 137.959  0.00  0.00    +0.026 C 
ATOM    101  CG2 VAL A  13      51.088  53.258 138.557  0.00  0.00    +0.002 C 
ATOM    102  CG1 VAL A  13      52.792  54.922 137.870  0.00  0.00    +0.002 C 
ENDBRANCH  99 100
BRANCH  99 103
ATOM    103  C   VAL A  13      50.804  57.094 138.176  0.00  0.00    +0.227 C 
ATOM    104  O   VAL A  13      50.260  57.387 137.105  0.00  0.00    -0.286 OA
ENDBRANCH  99 103
ENDBRANCH  97  99
ENDBRANCH  94  95
BRANCH  94 105
ATOM    105  CB  LEU A  12      46.462  56.076 140.383  0.00  0.00    +0.029 C 
BRANCH 105 106
ATOM    106  CG  LEU A  12      44.938  56.057 140.551  0.00  0.00    +0.002 C 
ATOM    107  CD2 LEU A  12      44.433  57.460 140.901  0.00  0.00    +0.000 C 
ATOM    108  CD1 LEU A  12      44.223  55.528 139.304  0.00  0.00    +0.000 C 
ENDBRANCH 105 106
ENDBRANCH  94 105
ENDBRANCH  91  94
ENDBRANCH  89  90
BRANCH  89 109
ATOM    109  CB  ILE A  11      47.194  50.175 141.531  0.00  0.00    +0.027 C 
ATOM    110  CG2 ILE A  11      48.613  50.521 141.918  0.00  0.00    +0.002 C 
BRANCH 109 111
ATOM    111  CG1 ILE A  11      46.687  49.032 142.434  0.00  0.00    +0.002 C 
ATOM    112  CD1 ILE A  11      46.494  49.392 143.894  0.00  0.00    +0.000 C 
ENDBRANCH 109 111
ENDBRANCH  89 109
ENDBRANCH  87  89
ENDBRANCH  84  85
BRANCH  84 113
ATOM    113  CB  ASN A  10      41.656  50.826 143.010  0.00  0.00    +0.114 C 
BRANCH 113 114
ATOM    114  CG  ASN A  10      40.181  51.151 142.958  0.00  0.00    +0.222 C 
ATOM    115  ND2 ASN A  10      39.358  50.268 143.519  0.00  0.00    -0.329 N 
ATOM    116 HD21 ASN A  10      39.741  49.406 143.957  0.00  0.00    +0.145 HD
ATOM    117 HD22 ASN A  10      38.332  50.440 143.519  0.00  0.00    +0.145 HD
ATOM    118  OD1 ASN A  10      39.783  52.184 142.427  0.00  0.00    -0.275 OA
ENDBRANCH 113 114
ENDBRANCH  84 113
ENDBRANCH  81  84
ENDBRANCH  78  80
ENDBRANCH  76  78
ENDBRANCH  73  74
ENDBRANCH  66  67
BRANCH  66 119
ATOM    119  CB  LYS A   7      40.850  45.700 141.436  0.00  0.00    +0.029 C 
BRANCH 119 120
ATOM    120  CG  LYS A   7      40.017  46.951 141.359  0.00  0.00    +0.000 C 
BRANCH 120 121
ATOM    121  CD  LYS A   7      38.582  46.622 141.007  0.00  0.00    -0.024 C 
BRANCH 121 122
ATOM    122  CE  LYS A   7      37.751  47.884 140.930  0.00  0.00    -0.086 C 
BRANCH 122 123
ATOM    123  NZ  LYS A   7      36.288  47.585 140.929  0.00  0.00    +0.380 N 
ATOM    124  HZ1 LYS A   7      36.038  47.081 141.804  0.00  0.00    -0.089 HD
ATOM    125  HZ2 LYS A   7      35.753  48.475 140.875  0.00  0.00    -0.089 HD
ATOM    126  HZ3 LYS A   7      36.057  46.991 140.107  0.00  0.00    -0.089 HD
ENDBRANCH 122 123
ENDBRANCH 121 122
ENDBRANCH 120 121
ENDBRANCH 119 120
ENDBRANCH  66 119
ENDBRANCH   3  66
TORSDOF 50
REMARK  Name = ../refined-set-2016/4f6w/4f6w_pocket.pdb
REMARK  309 active torsions:
REMARK  status: ('A' for Active; 'I' for Inactive)
REMARK    1  A    between atoms: _1  and  _3
REMARK    2  A    between atoms: _3  and  _4
REMARK    3  A    between atoms: _3  and  _6
REMARK    4  A    between atoms: _8  and  _10
REMARK    5  A    between atoms: _10  and  _11
REMARK    6  A    between atoms: _10  and  _13
REMARK    7  A    between atoms: _13  and  _14
REMARK    8  A    between atoms: _14  and  _15
REMARK    9  A    between atoms: _15  and  _16
REMARK   10  A    between atoms: _16  and  _17
REMARK   11  A    between atoms: _21  and  _23
REMARK   12  A    between atoms: _23  and  _24
REMARK   13  A    between atoms: _23  and  _26
REMARK   14  A    between atoms: _29  and  _31
REMARK   15  A    between atoms: _31  and  _32
REMARK   16  A    between atoms: _34  and  _36
REMARK   17  A    between atoms: _36  and  _37
REMARK   18  A    between atoms: _36  and  _39
REMARK   19  A    between atoms: _39  and  _40
REMARK   20  A    between atoms: _40  and  _41
REMARK   21  A    between atoms: _41  and  _42
REMARK   22  A    between atoms: _51  and  _53
REMARK   23  A    between atoms: _53  and  _54
REMARK   24  A    between atoms: _56  and  _58
REMARK   25  A    between atoms: _58  and  _59
REMARK   26  A    between atoms: _58  and  _61
REMARK   27  A    between atoms: _61  and  _62
REMARK   28  A    between atoms: _67  and  _68
REMARK   29  A    between atoms: _70  and  _72
REMARK   30  A    between atoms: _72  and  _73
REMARK   31  A    between atoms: _75  and  _77
REMARK   32  A    between atoms: _77  and  _78
REMARK   33  A    between atoms: _77  and  _80
REMARK   34  A    between atoms: _80  and  _81
REMARK   35  A    between atoms: _86  and  _88
REMARK   36  A    between atoms: _88  and  _89
REMARK   37  A    between atoms: _88  and  _91
REMARK   38  A    between atoms: _94  and  _96
REMARK   39  A    between atoms: _96  and  _97
REMARK   40  A    between atoms: _96  and  _99
REMARK   41  A    between atoms: _99  and  _100
REMARK   42  A    between atoms: _105  and  _106
REMARK   43  A    between atoms: _108  and  _110
REMARK   44  A    between atoms: _110  and  _111
REMARK   45  A    between atoms: _110  and  _113
REMARK   46  A    between atoms: _113  and  _114
REMARK   47  A    between atoms: _114  and  _115
REMARK   48  A    between atoms: _115  and  _116
REMARK   49  A    between atoms: _116  and  _117
REMARK   50  A    between atoms: _121  and  _123
REMARK   51  A    between atoms: _123  and  _124
REMARK   52  A    between atoms: _127  and  _129
REMARK   53  A    between atoms: _129  and  _130
REMARK   54  A    between atoms: _129  and  _132
REMARK   55  A    between atoms: _132  and  _133
REMARK   56  A    between atoms: _138  and  _139
REMARK   57  A    between atoms: _141  and  _143
REMARK   58  A    between atoms: _143  and  _144
REMARK   59  A    between atoms: _147  and  _149
REMARK   60  A    between atoms: _149  and  _150
REMARK   61  A    between atoms: _149  and  _152
REMARK   62  A    between atoms: _152  and  _153
REMARK   63  A    between atoms: _156  and  _158
REMARK   64  A    between atoms: _158  and  _159
REMARK   65  A    between atoms: _158  and  _161
REMARK   66  A    between atoms: _161  and  _162
REMARK   67  A    between atoms: _162  and  _163
REMARK   68  A    between atoms: _163  and  _164
REMARK   69  A    between atoms: _164  and  _165
REMARK   70  A    between atoms: _169  and  _171
REMARK   71  A    between atoms: _171  and  _172
REMARK   72  A    between atoms: _171  and  _174
REMARK   73  A    between atoms: _174  and  _175
REMARK   74  A    between atoms: _175  and  _176
REMARK   75  A    between atoms: _181  and  _183
REMARK   76  A    between atoms: _183  and  _184
REMARK   77  A    between atoms: _183  and  _186
REMARK   78  A    between atoms: _186  and  _187
REMARK   79  A    between atoms: _190  and  _192
REMARK   80  A    between atoms: _192  and  _193
REMARK   81  A    between atoms: _192  and  _195
REMARK   82  A    between atoms: _195  and  _196
REMARK   83  A    between atoms: _198  and  _200
REMARK   84  A    between atoms: _200  and  _201
REMARK   85  A    between atoms: _200  and  _203
REMARK   86  A    between atoms: _203  and  _204
REMARK   87  A    between atoms: _204  and  _205
REMARK   88  A    between atoms: _207  and  _209
REMARK   89  A    between atoms: _209  and  _210
REMARK   90  A    between atoms: _209  and  _212
REMARK   91  A    between atoms: _212  and  _213
REMARK   92  A    between atoms: _215  and  _217
REMARK   93  A    between atoms: _217  and  _218
REMARK   94  A    between atoms: _221  and  _223
REMARK   95  A    between atoms: _223  and  _224
REMARK   96  A    between atoms: _223  and  _226
REMARK   97  A    between atoms: _228  and  _230
REMARK   98  A    between atoms: _230  and  _231
REMARK   99  A    between atoms: _230  and  _233
REMARK  100  A    between atoms: _233  and  _234
REMARK  101  A    between atoms: _234  and  _235
REMARK  102  A    between atoms: _235  and  _236
REMARK  103  A    between atoms: _245  and  _247
REMARK  104  A    between atoms: _247  and  _248
REMARK  105  A    between atoms: _247  and  _250
REMARK  106  A    between atoms: _250  and  _251
REMARK  107  A    between atoms: _251  and  _252
REMARK  108  A    between atoms: _255  and  _257
REMARK  109  A    between atoms: _257  and  _258
REMARK  110  A    between atoms: _257  and  _260
REMARK  111  A    between atoms: _260  and  _261
REMARK  112  A    between atoms: _264  and  _266
REMARK  113  A    between atoms: _266  and  _267
REMARK  114  A    between atoms: _270  and  _272
REMARK  115  A    between atoms: _272  and  _273
REMARK  116  A    between atoms: _272  and  _275
REMARK  117  A    between atoms: _275  and  _276
REMARK  118  A    between atoms: _279  and  _281
REMARK  119  A    between atoms: _281  and  _282
REMARK  120  A    between atoms: _281  and  _284
REMARK  121  A    between atoms: _284  and  _285
REMARK  122  A    between atoms: _288  and  _290
REMARK  123  A    between atoms: _290  and  _291
REMARK  124  A    between atoms: _290  and  _293
REMARK  125  A    between atoms: _293  and  _294
REMARK  126  A    between atoms: _297  and  _299
REMARK  127  A    between atoms: _299  and  _300
REMARK  128  A    between atoms: _299  and  _302
REMARK  129  A    between atoms: _302  and  _303
REMARK  130  A    between atoms: _308  and  _310
REMARK  131  A    between atoms: _310  and  _311
REMARK  132  A    between atoms: _310  and  _313
REMARK  133  A    between atoms: _316  and  _318
REMARK  134  A    between atoms: _318  and  _319
REMARK  135  A    between atoms: _318  and  _321
REMARK  136  A    between atoms: _321  and  _322
REMARK  137  A    between atoms: _325  and  _327
REMARK  138  A    between atoms: _327  and  _328
REMARK  139  A    between atoms: _327  and  _330
REMARK  140  A    between atoms: _330  and  _331
REMARK  141  A    between atoms: _333  and  _335
REMARK  142  A    between atoms: _335  and  _336
REMARK  143  A    between atoms: _335  and  _338
REMARK  144  A    between atoms: _338  and  _339
REMARK  145  A    between atoms: _342  and  _344
REMARK  146  A    between atoms: _344  and  _345
REMARK  147  A    between atoms: _344  and  _347
REMARK  148  A    between atoms: _347  and  _348
REMARK  149  A    between atoms: _351  and  _353
REMARK  150  A    between atoms: _353  and  _354
REMARK  151  A    between atoms: _353  and  _356
REMARK  152  A    between atoms: _356  and  _357
REMARK  153  A    between atoms: _360  and  _362
REMARK  154  A    between atoms: _362  and  _363
REMARK  155  A    between atoms: _362  and  _365
REMARK  156  A    between atoms: _365  and  _366
REMARK  157  A    between atoms: _372  and  _374
REMARK  158  A    between atoms: _374  and  _375
REMARK  159  A    between atoms: _374  and  _377
REMARK  160  A    between atoms: _377  and  _378
REMARK  161  A    between atoms: _381  and  _383
REMARK  162  A    between atoms: _383  and  _384
REMARK  163  A    between atoms: _383  and  _386
REMARK  164  A    between atoms: _386  and  _387
REMARK  165  A    between atoms: _392  and  _393
REMARK  166  A    between atoms: _395  and  _397
REMARK  167  A    between atoms: _397  and  _398
REMARK  168  A    between atoms: _401  and  _403
REMARK  169  A    between atoms: _403  and  _404
REMARK  170  A    between atoms: _403  and  _406
REMARK  171  A    between atoms: _406  and  _407
REMARK  172  A    between atoms: _407  and  _408
REMARK  173  A    between atoms: _411  and  _413
REMARK  174  A    between atoms: _413  and  _414
REMARK  175  A    between atoms: _413  and  _416
REMARK  176  A    between atoms: _416  and  _417
REMARK  177  A    between atoms: _422  and  _424
REMARK  178  A    between atoms: _424  and  _425
REMARK  179  A    between atoms: _424  and  _427
REMARK  180  A    between atoms: _427  and  _428
REMARK  181  A    between atoms: _431  and  _433
REMARK  182  A    between atoms: _433  and  _434
REMARK  183  A    between atoms: _433  and  _436
REMARK  184  A    between atoms: _436  and  _437
REMARK  185  A    between atoms: _440  and  _442
REMARK  186  A    between atoms: _442  and  _443
REMARK  187  A    between atoms: _442  and  _445
REMARK  188  A    between atoms: _445  and  _446
REMARK  189  A    between atoms: _456  and  _458
REMARK  190  A    between atoms: _458  and  _459
REMARK  191  A    between atoms: _458  and  _461
REMARK  192  A    between atoms: _461  and  _462
REMARK  193  A    between atoms: _467  and  _469
REMARK  194  A    between atoms: _469  and  _470
REMARK  195  A    between atoms: _469  and  _472
REMARK  196  A    between atoms: _472  and  _473
REMARK  197  A    between atoms: _476  and  _478
REMARK  198  A    between atoms: _478  and  _479
REMARK  199  A    between atoms: _478  and  _481
REMARK  200  A    between atoms: _481  and  _482
REMARK  201  A    between atoms: _482  and  _483
REMARK  202  A    between atoms: _483  and  _484
REMARK  203  A    between atoms: _484  and  _485
REMARK  204  A    between atoms: _489  and  _491
REMARK  205  A    between atoms: _491  and  _492
REMARK  206  A    between atoms: _494  and  _496
REMARK  207  A    between atoms: _496  and  _497
REMARK  208  A    between atoms: _496  and  _499
REMARK  209  A    between atoms: _499  and  _500
REMARK  210  A    between atoms: _503  and  _505
REMARK  211  A    between atoms: _505  and  _506
REMARK  212  A    between atoms: _505  and  _508
REMARK  213  A    between atoms: _508  and  _509
REMARK  214  A    between atoms: _514  and  _515
REMARK  215  A    between atoms: _517  and  _519
REMARK  216  A    between atoms: _519  and  _520
REMARK  217  A    between atoms: _519  and  _522
REMARK  218  A    between atoms: _522  and  _523
REMARK  219  A    between atoms: _526  and  _528
REMARK  220  A    between atoms: _528  and  _529
REMARK  221  A    between atoms: _528  and  _531
REMARK  222  A    between atoms: _534  and  _536
REMARK  223  A    between atoms: _536  and  _537
REMARK  224  A    between atoms: _536  and  _539
REMARK  225  A    between atoms: _539  and  _540
REMARK  226  A    between atoms: _543  and  _545
REMARK  227  A    between atoms: _545  and  _546
REMARK  228  A    between atoms: _545  and  _548
REMARK  229  A    between atoms: _548  and  _549
REMARK  230  A    between atoms: _554  and  _556
REMARK  231  A    between atoms: _556  and  _557
REMARK  232  A    between atoms: _556  and  _559
REMARK  233  A    between atoms: _559  and  _560
REMARK  234  A    between atoms: _560  and  _561
REMARK  235  A    between atoms: _561  and  _562
REMARK  236  A    between atoms: _571  and  _573
REMARK  237  A    between atoms: _573  and  _574
REMARK  238  A    between atoms: _573  and  _576
REMARK  239  A    between atoms: _576  and  _577
REMARK  240  A    between atoms: _580  and  _582
REMARK  241  A    between atoms: _582  and  _583
REMARK  242  A    between atoms: _582  and  _585
REMARK  243  A    between atoms: _585  and  _586
REMARK  244  A    between atoms: _589  and  _591
REMARK  245  A    between atoms: _591  and  _592
REMARK  246  A    between atoms: _591  and  _594
REMARK  247  A    between atoms: _594  and  _595
REMARK  248  A    between atoms: _595  and  _596
REMARK  249  A    between atoms: _596  and  _597
REMARK  250  A    between atoms: _597  and  _598
REMARK  251  A    between atoms: _603  and  _604
REMARK  252  A    between atoms: _609  and  _611
REMARK  253  A    between atoms: _611  and  _612
REMARK  254  A    between atoms: _615  and  _617
REMARK  255  A    between atoms: _617  and  _618
REMARK  256  A    between atoms: _617  and  _620
REMARK  257  A    between atoms: _620  and  _621
REMARK  258  A    between atoms: _626  and  _628
REMARK  259  A    between atoms: _628  and  _629
REMARK  260  A    between atoms: _628  and  _631
REMARK  261  A    between atoms: _631  and  _632
REMARK  262  A    between atoms: _635  and  _637
REMARK  263  A    between atoms: _637  and  _638
REMARK  264  A    between atoms: _637  and  _640
REMARK  265  A    between atoms: _640  and  _641
REMARK  266  A    between atoms: _644  and  _646
REMARK  267  A    between atoms: _646  and  _647
REMARK  268  A    between atoms: _646  and  _649
REMARK  269  A    between atoms: _652  and  _654
REMARK  270  A    between atoms: _654  and  _655
REMARK  271  A    between atoms: _654  and  _657
REMARK  272  A    between atoms: _657  and  _658
REMARK  273  A    between atoms: _658  and  _659
REMARK  274  A    between atoms: _659  and  _660
REMARK  275  A    between atoms: _660  and  _661
REMARK  276  A    between atoms: _665  and  _667
REMARK  277  A    between atoms: _667  and  _668
REMARK  278  A    between atoms: _667  and  _670
REMARK  279  A    between atoms: _670  and  _671
REMARK  280  A    between atoms: _674  and  _676
REMARK  281  A    between atoms: _676  and  _677
REMARK  282  A    between atoms: _680  and  _682
REMARK  283  A    between atoms: _682  and  _683
REMARK  284  A    between atoms: _682  and  _685
REMARK  285  A    between atoms: _685  and  _686
REMARK  286  A    between atoms: _689  and  _691
REMARK  287  A    between atoms: _691  and  _692
REMARK  288  A    between atoms: _691  and  _694
REMARK  289  A    between atoms: _694  and  _695
REMARK  290  A    between atoms: _695  and  _696
REMARK  291  A    between atoms: _698  and  _700
REMARK  292  A    between atoms: _700  and  _701
REMARK  293  A    between atoms: _703  and  _705
REMARK  294  A    between atoms: _705  and  _706
REMARK  295  A    between atoms: _705  and  _708
REMARK  296  A    between atoms: _708  and  _709
REMARK  297  A    between atoms: _715  and  _717
REMARK  298  A    between atoms: _717  and  _718
REMARK  299  A    between atoms: _721  and  _723
REMARK  300  A    between atoms: _723  and  _724
REMARK  301  A    between atoms: _723  and  _726
REMARK  302  A    between atoms: _726  and  _727
REMARK  303  A    between atoms: _727  and  _728
REMARK  304  A    between atoms: _728  and  _729
REMARK  305  A    between atoms: _738  and  _740
REMARK  306  A    between atoms: _740  and  _741
REMARK  307  A    between atoms: _740  and  _743
REMARK  308  A    between atoms: _743  and  _744
REMARK  309  A    between atoms: _744  and  _745
REMARK                            x       y       z     vdW  Elec       q    Type
REMARK                         _______ _______ _______ _____ _____    ______ ____
ROOT
ATOM      1  CA  ASP A   4      39.112  54.114 145.338  0.00  0.00    +0.160 C 
ENDROOT
BRANCH   1   2
ATOM      2  C   ASP A   4      37.938  54.806 144.644  0.00  0.00    +0.241 C 
ATOM      3  O   ASP A   4      37.720  55.997 144.837  0.00  0.00    -0.273 OA
ATOM      4  N   MET A   5      37.190  54.049 143.838  0.00  0.00    -0.297 N 
ATOM      5  H   MET A   5      37.520  53.087 143.619  0.00  0.00    +0.150 HD
BRANCH   4   6
ATOM      6  CA  MET A   5      35.913  54.508 143.238  0.00  0.00    +0.149 C 
BRANCH   6   7
ATOM      7  C   MET A   5      34.720  54.415 144.193  0.00  0.00    +0.241 C 
ATOM      8  N   GLY A   6      34.840  53.634 145.266  0.00  0.00    -0.295 N 
ATOM      9  H   GLY A   6      35.700  53.057 145.367  0.00  0.00    +0.150 HD
ATOM     10  O   MET A   5      33.693  55.025 143.945  0.00  0.00    -0.273 OA
BRANCH   8  11
ATOM     11  CA  GLY A   6      33.808  53.551 146.316  0.00  0.00    +0.176 C 
BRANCH  11  12
ATOM     12  C   GLY A   6      32.734  52.492 146.103  0.00  0.00    +0.243 C 
ATOM     13  O   GLY A   6      31.597  52.684 146.536  0.00  0.00    -0.273 OA
ATOM     14  N   PHE A   7      33.094  51.370 145.470  0.00  0.00    -0.297 N 
ATOM     15  H   PHE A   7      34.088  51.259 145.186  0.00  0.00    +0.150 HD
BRANCH  14  16
ATOM     16  CA  PHE A   7      32.146  50.282 145.156  0.00  0.00    +0.153 C 
BRANCH  16  17
ATOM     17  C   PHE A   7      31.589  49.603 146.410  0.00  0.00    +0.241 C 
ATOM     18  N   ALA A   8      32.492  49.065 147.232  0.00  0.00    -0.298 N 
ATOM     19  H   ALA A   8      33.484  49.038 146.921  0.00  0.00    +0.150 HD
ATOM     20  O   PHE A   7      30.371  49.576 146.616  0.00  0.00    -0.273 OA
BRANCH  18  21
ATOM     21  CA  ALA A   8      32.162  48.507 148.556  0.00  0.00    +0.137 C 
ATOM     22  CB  ALA A   8      31.742  49.635 149.516  0.00  0.00    +0.030 C 
BRANCH  21  23
ATOM     23  C   ALA A   8      31.086  47.409 148.508  0.00  0.00    +0.227 C 
ATOM     24  O   ALA A   8      30.662  46.881 149.541  0.00  0.00    -0.286 OA
ENDBRANCH  21  23
ENDBRANCH  18  21
ENDBRANCH  16  17
BRANCH  16  25
ATOM     25  CB  PHE A   7      32.693  49.225 144.212  0.00  0.00    +0.055 C 
BRANCH  25  26
ATOM     26  CG  PHE A   7      32.576  49.581 142.754  0.00  0.00    -0.020 A 
ATOM     27  CD2 PHE A   7      31.340  49.588 142.127  0.00  0.00    -0.004 A 
ATOM     28  CE2 PHE A   7      31.227  49.908 140.788  0.00  0.00    -0.000 A 
ATOM     29  CZ  PHE A   7      32.354  50.216 140.057  0.00  0.00    -0.000 A 
ATOM     30  CE1 PHE A   7      33.592  50.206 140.667  0.00  0.00    -0.000 A 
ATOM     31  CD1 PHE A   7      33.700  49.887 142.008  0.00  0.00    -0.004 A 
ENDBRANCH  25  26
ENDBRANCH  16  25
ENDBRANCH  14  16
ENDBRANCH  11  12
ENDBRANCH   8  11
ENDBRANCH   6   7
BRANCH   6  32
ATOM     32  CB  MET A   5      35.596  53.705 141.977  0.00  0.00    +0.041 C 
BRANCH  32  33
ATOM     33  CG  MET A   5      36.681  53.758 140.880  0.00  0.00    +0.060 C 
BRANCH  33  34
ATOM     34  SD  MET A   5      36.373  52.519 139.591  0.00  0.00    -0.139 S 
ATOM     35  CE  MET A   5      37.356  51.151 140.150  0.00  0.00    +0.069 C 
ENDBRANCH  33  34
ENDBRANCH  32  33
ENDBRANCH   6  32
ENDBRANCH   4   6
ENDBRANCH   1   2
BRANCH   1  38
ATOM     36  C   ALA A   3      41.542  54.337 145.256  0.00  0.00    +0.241 C 
ATOM     37  O   ALA A   3      41.740  53.127 145.385  0.00  0.00    -0.273 OA
ATOM     38  N   ASP A   4      40.335  54.899 145.275  0.00  0.00    -0.297 N 
ATOM     39  H   ASP A   4      40.264  55.936 145.244  0.00  0.00    +0.150 HD
BRANCH  36  40
ATOM     40  CA  ALA A   3      42.711  55.280 145.052  0.00  0.00    +0.149 C 
ATOM     41  CB  ALA A   3      42.603  55.962 143.678  0.00  0.00    +0.031 C 
BRANCH  40  44
ATOM     42  C   ILE A   2      45.013  54.926 145.870  0.00  0.00    +0.241 C 
ATOM     43  O   ILE A   2      45.055  56.000 146.480  0.00  0.00    -0.273 OA
ATOM     44  N   ALA A   3      43.960  54.518 145.159  0.00  0.00    -0.297 N 
ATOM     45  H   ALA A   3      44.028  53.612 144.654  0.00  0.00    +0.150 HD
BRANCH  42  46
ATOM     46  CA  ILE A   2      46.232  54.005 145.841  0.00  0.00    +0.148 C 
BRANCH  46  48
ATOM     47  C   LYS A   1      47.659  55.416 144.430  0.00  0.00    +0.238 C 
ATOM     48  N   ILE A   2      47.425  54.842 145.611  0.00  0.00    -0.297 N 
ATOM     49  H   ILE A   2      48.100  54.988 146.389  0.00  0.00    +0.150 HD
ATOM     50  O   LYS A   1      46.951  55.227 143.451  0.00  0.00    -0.274 OA
BRANCH  47  51
ATOM     51  CA  LYS A   1      48.870  56.344 144.327  0.00  0.00    +0.145 C 
BRANCH  51  52
ATOM     52  N   LYS A   1      49.872  55.718 143.464  0.00  0.00    -0.238 NA
ATOM     53  H   LYS A   1      49.587  55.417 142.510  0.00  0.00    +0.142 HD
ENDBRANCH  51  52
BRANCH  51  54
ATOM     54  CB  LYS A   1      48.428  57.700 143.769  0.00  0.00    +0.026 C 
BRANCH  54  55
ATOM     55  CG  LYS A   1      49.530  58.722 143.635  0.00  0.00    -0.000 C 
BRANCH  55  56
ATOM     56  CD  LYS A   1      50.056  59.196 144.969  0.00  0.00    -0.024 C 
BRANCH  56  57
ATOM     57  CE  LYS A   1      51.076  60.324 144.767  0.00  0.00    -0.086 C 
BRANCH  57  58
ATOM     58  NZ  LYS A   1      51.640  60.844 146.039  0.00  0.00    +0.380 N 
ATOM     59  HZ1 LYS A   1      50.871  61.220 146.630  0.00  0.00    -0.089 HD
ATOM     60  HZ2 LYS A   1      52.122  60.073 146.544  0.00  0.00    -0.089 HD
ATOM     61  HZ3 LYS A   1      52.321  61.602 145.831  0.00  0.00    -0.089 HD
ENDBRANCH  57  58
ENDBRANCH  56  57
ENDBRANCH  55  56
ENDBRANCH  54  55
ENDBRANCH  51  54
ENDBRANCH  47  51
ENDBRANCH  46  48
BRANCH  46  62
ATOM     62  CB  ILE A   2      46.332  53.174 147.132  0.00  0.00    +0.027 C 
ATOM     63  CG2 ILE A   2      45.044  52.327 147.376  0.00  0.00    +0.002 C 
BRANCH  62  64
ATOM     64  CG1 ILE A   2      47.536  52.218 147.066  0.00  0.00    +0.002 C 
ATOM     65  CD1 ILE A   2      47.786  51.457 148.361  0.00  0.00    +0.000 C 
ENDBRANCH  62  64
ENDBRANCH  46  62
ENDBRANCH  42  46
ENDBRANCH  40  44
ENDBRANCH  36  40
ENDBRANCH   1  38
BRANCH   1  66
ATOM     66  CB  ASP A   4      38.767  53.839 146.800  0.00  0.00    +0.143 C 
BRANCH  66  67
ATOM     67  CG  ASP A   4      37.687  52.773 146.961  0.00  0.00    +0.367 C 
ATOM     68  OD2 ASP A   4      36.786  52.955 147.792  0.00  0.00    -0.246 OA
ATOM     69  OD1 ASP A   4      37.742  51.750 146.259  0.00  0.00    -0.246 OA
ENDBRANCH  66  67
ENDBRANCH   1  66
TORSDOF 30
REMARK  Name = ../refined-set-2016/4f6w/4f6w_pocket.pdb
REMARK  309 active torsions:
REMARK  status: ('A' for Active; 'I' for Inactive)
REMARK    1  A    between atoms: _1  and  _3
REMARK    2  A    between atoms: _3  and  _4
REMARK    3  A    between atoms: _3  and  _6
REMARK    4  A    between atoms: _8  and  _10
REMARK    5  A    between atoms: _10  and  _11
REMARK    6  A    between atoms: _10  and  _13
REMARK    7  A    between atoms: _13  and  _14
REMARK    8  A    between atoms: _14  and  _15
REMARK    9  A    between atoms: _15  and  _16
REMARK   10  A    between atoms: _16  and  _17
REMARK   11  A    between atoms: _21  and  _23
REMARK   12  A    between atoms: _23  and  _24
REMARK   13  A    between atoms: _23  and  _26
REMARK   14  A    between atoms: _29  and  _31
REMARK   15  A    between atoms: _31  and  _32
REMARK   16  A    between atoms: _34  and  _36
REMARK   17  A    between atoms: _36  and  _37
REMARK   18  A    between atoms: _36  and  _39
REMARK   19  A    between atoms: _39  and  _40
REMARK   20  A    between atoms: _40  and  _41
REMARK   21  A    between atoms: _41  and  _42
REMARK   22  A    between atoms: _51  and  _53
REMARK   23  A    between atoms: _53  and  _54
REMARK   24  A    between atoms: _56  and  _58
REMARK   25  A    between atoms: _58  and  _59
REMARK   26  A    between atoms: _58  and  _61
REMARK   27  A    between atoms: _61  and  _62
REMARK   28  A    between atoms: _67  and  _68
REMARK   29  A    between atoms: _70  and  _72
REMARK   30  A    between atoms: _72  and  _73
REMARK   31  A    between atoms: _75  and  _77
REMARK   32  A    between atoms: _77  and  _78
REMARK   33  A    between atoms: _77  and  _80
REMARK   34  A    between atoms: _80  and  _81
REMARK   35  A    between atoms: _86  and  _88
REMARK   36  A    between atoms: _88  and  _89
REMARK   37  A    between atoms: _88  and  _91
REMARK   38  A    between atoms: _94  and  _96
REMARK   39  A    between atoms: _96  and  _97
REMARK   40  A    between atoms: _96  and  _99
REMARK   41  A    between atoms: _99  and  _100
REMARK   42  A    between atoms: _105  and  _106
REMARK   43  A    between atoms: _108  and  _110
REMARK   44  A    between atoms: _110  and  _111
REMARK   45  A    between atoms: _110  and  _113
REMARK   46  A    between atoms: _113  and  _114
REMARK   47  A    between atoms: _114  and  _115
REMARK   48  A    between atoms: _115  and  _116
REMARK   49  A    between atoms: _116  and  _117
REMARK   50  A    between atoms: _121  and  _123
REMARK   51  A    between atoms: _123  and  _124
REMARK   52  A    between atoms: _127  and  _129
REMARK   53  A    between atoms: _129  and  _130
REMARK   54  A    between atoms: _129  and  _132
REMARK   55  A    between atoms: _132  and  _133
REMARK   56  A    between atoms: _138  and  _139
REMARK   57  A    between atoms: _141  and  _143
REMARK   58  A    between atoms: _143  and  _144
REMARK   59  A    between atoms: _147  and  _149
REMARK   60  A    between atoms: _149  and  _150
REMARK   61  A    between atoms: _149  and  _152
REMARK   62  A    between atoms: _152  and  _153
REMARK   63  A    between atoms: _156  and  _158
REMARK   64  A    between atoms: _158  and  _159
REMARK   65  A    between atoms: _158  and  _161
REMARK   66  A    between atoms: _161  and  _162
REMARK   67  A    between atoms: _162  and  _163
REMARK   68  A    between atoms: _163  and  _164
REMARK   69  A    between atoms: _164  and  _165
REMARK   70  A    between atoms: _169  and  _171
REMARK   71  A    between atoms: _171  and  _172
REMARK   72  A    between atoms: _171  and  _174
REMARK   73  A    between atoms: _174  and  _175
REMARK   74  A    between atoms: _175  and  _176
REMARK   75  A    between atoms: _181  and  _183
REMARK   76  A    between atoms: _183  and  _184
REMARK   77  A    between atoms: _183  and  _186
REMARK   78  A    between atoms: _186  and  _187
REMARK   79  A    between atoms: _190  and  _192
REMARK   80  A    between atoms: _192  and  _193
REMARK   81  A    between atoms: _192  and  _195
REMARK   82  A    between atoms: _195  and  _196
REMARK   83  A    between atoms: _198  and  _200
REMARK   84  A    between atoms: _200  and  _201
REMARK   85  A    between atoms: _200  and  _203
REMARK   86  A    between atoms: _203  and  _204
REMARK   87  A    between atoms: _204  and  _205
REMARK   88  A    between atoms: _207  and  _209
REMARK   89  A    between atoms: _209  and  _210
REMARK   90  A    between atoms: _209  and  _212
REMARK   91  A    between atoms: _212  and  _213
REMARK   92  A    between atoms: _215  and  _217
REMARK   93  A    between atoms: _217  and  _218
REMARK   94  A    between atoms: _221  and  _223
REMARK   95  A    between atoms: _223  and  _224
REMARK   96  A    between atoms: _223  and  _226
REMARK   97  A    between atoms: _228  and  _230
REMARK   98  A    between atoms: _230  and  _231
REMARK   99  A    between atoms: _230  and  _233
REMARK  100  A    between atoms: _233  and  _234
REMARK  101  A    between atoms: _234  and  _235
REMARK  102  A    between atoms: _235  and  _236
REMARK  103  A    between atoms: _245  and  _247
REMARK  104  A    between atoms: _247  and  _248
REMARK  105  A    between atoms: _247  and  _250
REMARK  106  A    between atoms: _250  and  _251
REMARK  107  A    between atoms: _251  and  _252
REMARK  108  A    between atoms: _255  and  _257
REMARK  109  A    between atoms: _257  and  _258
REMARK  110  A    between atoms: _257  and  _260
REMARK  111  A    between atoms: _260  and  _261
REMARK  112  A    between atoms: _264  and  _266
REMARK  113  A    between atoms: _266  and  _267
REMARK  114  A    between atoms: _270  and  _272
REMARK  115  A    between atoms: _272  and  _273
REMARK  116  A    between atoms: _272  and  _275
REMARK  117  A    between atoms: _275  and  _276
REMARK  118  A    between atoms: _279  and  _281
REMARK  119  A    between atoms: _281  and  _282
REMARK  120  A    between atoms: _281  and  _284
REMARK  121  A    between atoms: _284  and  _285
REMARK  122  A    between atoms: _288  and  _290
REMARK  123  A    between atoms: _290  and  _291
REMARK  124  A    between atoms: _290  and  _293
REMARK  125  A    between atoms: _293  and  _294
REMARK  126  A    between atoms: _297  and  _299
REMARK  127  A    between atoms: _299  and  _300
REMARK  128  A    between atoms: _299  and  _302
REMARK  129  A    between atoms: _302  and  _303
REMARK  130  A    between atoms: _308  and  _310
REMARK  131  A    between atoms: _310  and  _311
REMARK  132  A    between atoms: _310  and  _313
REMARK  133  A    between atoms: _316  and  _318
REMARK  134  A    between atoms: _318  and  _319
REMARK  135  A    between atoms: _318  and  _321
REMARK  136  A    between atoms: _321  and  _322
REMARK  137  A    between atoms: _325  and  _327
REMARK  138  A    between atoms: _327  and  _328
REMARK  139  A    between atoms: _327  and  _330
REMARK  140  A    between atoms: _330  and  _331
REMARK  141  A    between atoms: _333  and  _335
REMARK  142  A    between atoms: _335  and  _336
REMARK  143  A    between atoms: _335  and  _338
REMARK  144  A    between atoms: _338  and  _339
REMARK  145  A    between atoms: _342  and  _344
REMARK  146  A    between atoms: _344  and  _345
REMARK  147  A    between atoms: _344  and  _347
REMARK  148  A    between atoms: _347  and  _348
REMARK  149  A    between atoms: _351  and  _353
REMARK  150  A    between atoms: _353  and  _354
REMARK  151  A    between atoms: _353  and  _356
REMARK  152  A    between atoms: _356  and  _357
REMARK  153  A    between atoms: _360  and  _362
REMARK  154  A    between atoms: _362  and  _363
REMARK  155  A    between atoms: _362  and  _365
REMARK  156  A    between atoms: _365  and  _366
REMARK  157  A    between atoms: _372  and  _374
REMARK  158  A    between atoms: _374  and  _375
REMARK  159  A    between atoms: _374  and  _377
REMARK  160  A    between atoms: _377  and  _378
REMARK  161  A    between atoms: _381  and  _383
REMARK  162  A    between atoms: _383  and  _384
REMARK  163  A    between atoms: _383  and  _386
REMARK  164  A    between atoms: _386  and  _387
REMARK  165  A    between atoms: _392  and  _393
REMARK  166  A    between atoms: _395  and  _397
REMARK  167  A    between atoms: _397  and  _398
REMARK  168  A    between atoms: _401  and  _403
REMARK  169  A    between atoms: _403  and  _404
REMARK  170  A    between atoms: _403  and  _406
REMARK  171  A    between atoms: _406  and  _407
REMARK  172  A    between atoms: _407  and  _408
REMARK  173  A    between atoms: _411  and  _413
REMARK  174  A    between atoms: _413  and  _414
REMARK  175  A    between atoms: _413  and  _416
REMARK  176  A    between atoms: _416  and  _417
REMARK  177  A    between atoms: _422  and  _424
REMARK  178  A    between atoms: _424  and  _425
REMARK  179  A    between atoms: _424  and  _427
REMARK  180  A    between atoms: _427  and  _428
REMARK  181  A    between atoms: _431  and  _433
REMARK  182  A    between atoms: _433  and  _434
REMARK  183  A    between atoms: _433  and  _436
REMARK  184  A    between atoms: _436  and  _437
REMARK  185  A    between atoms: _440  and  _442
REMARK  186  A    between atoms: _442  and  _443
REMARK  187  A    between atoms: _442  and  _445
REMARK  188  A    between atoms: _445  and  _446
REMARK  189  A    between atoms: _456  and  _458
REMARK  190  A    between atoms: _458  and  _459
REMARK  191  A    between atoms: _458  and  _461
REMARK  192  A    between atoms: _461  and  _462
REMARK  193  A    between atoms: _467  and  _469
REMARK  194  A    between atoms: _469  and  _470
REMARK  195  A    between atoms: _469  and  _472
REMARK  196  A    between atoms: _472  and  _473
REMARK  197  A    between atoms: _476  and  _478
REMARK  198  A    between atoms: _478  and  _479
REMARK  199  A    between atoms: _478  and  _481
REMARK  200  A    between atoms: _481  and  _482
REMARK  201  A    between atoms: _482  and  _483
REMARK  202  A    between atoms: _483  and  _484
REMARK  203  A    between atoms: _484  and  _485
REMARK  204  A    between atoms: _489  and  _491
REMARK  205  A    between atoms: _491  and  _492
REMARK  206  A    between atoms: _494  and  _496
REMARK  207  A    between atoms: _496  and  _497
REMARK  208  A    between atoms: _496  and  _499
REMARK  209  A    between atoms: _499  and  _500
REMARK  210  A    between atoms: _503  and  _505
REMARK  211  A    between atoms: _505  and  _506
REMARK  212  A    between atoms: _505  and  _508
REMARK  213  A    between atoms: _508  and  _509
REMARK  214  A    between atoms: _514  and  _515
REMARK  215  A    between atoms: _517  and  _519
REMARK  216  A    between atoms: _519  and  _520
REMARK  217  A    between atoms: _519  and  _522
REMARK  218  A    between atoms: _522  and  _523
REMARK  219  A    between atoms: _526  and  _528
REMARK  220  A    between atoms: _528  and  _529
REMARK  221  A    between atoms: _528  and  _531
REMARK  222  A    between atoms: _534  and  _536
REMARK  223  A    between atoms: _536  and  _537
REMARK  224  A    between atoms: _536  and  _539
REMARK  225  A    between atoms: _539  and  _540
REMARK  226  A    between atoms: _543  and  _545
REMARK  227  A    between atoms: _545  and  _546
REMARK  228  A    between atoms: _545  and  _548
REMARK  229  A    between atoms: _548  and  _549
REMARK  230  A    between atoms: _554  and  _556
REMARK  231  A    between atoms: _556  and  _557
REMARK  232  A    between atoms: _556  and  _559
REMARK  233  A    between atoms: _559  and  _560
REMARK  234  A    between atoms: _560  and  _561
REMARK  235  A    between atoms: _561  and  _562
REMARK  236  A    between atoms: _571  and  _573
REMARK  237  A    between atoms: _573  and  _574
REMARK  238  A    between atoms: _573  and  _576
REMARK  239  A    between atoms: _576  and  _577
REMARK  240  A    between atoms: _580  and  _582
REMARK  241  A    between atoms: _582  and  _583
REMARK  242  A    between atoms: _582  and  _585
REMARK  243  A    between atoms: _585  and  _586
REMARK  244  A    between atoms: _589  and  _591
REMARK  245  A    between atoms: _591  and  _592
REMARK  246  A    between atoms: _591  and  _594
REMARK  247  A    between atoms: _594  and  _595
REMARK  248  A    between atoms: _595  and  _596
REMARK  249  A    between atoms: _596  and  _597
REMARK  250  A    between atoms: _597  and  _598
REMARK  251  A    between atoms: _603  and  _604
REMARK  252  A    between atoms: _609  and  _611
REMARK  253  A    between atoms: _611  and  _612
REMARK  254  A    between atoms: _615  and  _617
REMARK  255  A    between atoms: _617  and  _618
REMARK  256  A    between atoms: _617  and  _620
REMARK  257  A    between atoms: _620  and  _621
REMARK  258  A    between atoms: _626  and  _628
REMARK  259  A    between atoms: _628  and  _629
REMARK  260  A    between atoms: _628  and  _631
REMARK  261  A    between atoms: _631  and  _632
REMARK  262  A    between atoms: _635  and  _637
REMARK  263  A    between atoms: _637  and  _638
REMARK  264  A    between atoms: _637  and  _640
REMARK  265  A    between atoms: _640  and  _641
REMARK  266  A    between atoms: _644  and  _646
REMARK  267  A    between atoms: _646  and  _647
REMARK  268  A    between atoms: _646  and  _649
REMARK  269  A    between atoms: _652  and  _654
REMARK  270  A    between atoms: _654  and  _655
REMARK  271  A    between atoms: _654  and  _657
REMARK  272  A    between atoms: _657  and  _658
REMARK  273  A    between atoms: _658  and  _659
REMARK  274  A    between atoms: _659  and  _660
REMARK  275  A    between atoms: _660  and  _661
REMARK  276  A    between atoms: _665  and  _667
REMARK  277  A    between atoms: _667  and  _668
REMARK  278  A    between atoms: _667  and  _670
REMARK  279  A    between atoms: _670  and  _671
REMARK  280  A    between atoms: _674  and  _676
REMARK  281  A    between atoms: _676  and  _677
REMARK  282  A    between atoms: _680  and  _682
REMARK  283  A    between atoms: _682  and  _683
REMARK  284  A    between atoms: _682  and  _685
REMARK  285  A    between atoms: _685  and  _686
REMARK  286  A    between atoms: _689  and  _691
REMARK  287  A    between atoms: _691  and  _692
REMARK  288  A    between atoms: _691  and  _694
REMARK  289  A    between atoms: _694  and  _695
REMARK  290  A    between atoms: _695  and  _696
REMARK  291  A    between atoms: _698  and  _700
REMARK  292  A    between atoms: _700  and  _701
REMARK  293  A    between atoms: _703  and  _705
REMARK  294  A    between atoms: _705  and  _706
REMARK  295  A    between atoms: _705  and  _708
REMARK  296  A    between atoms: _708  and  _709
REMARK  297  A    between atoms: _715  and  _717
REMARK  298  A    between atoms: _717  and  _718
REMARK  299  A    between atoms: _721  and  _723
REMARK  300  A    between atoms: _723  and  _724
REMARK  301  A    between atoms: _723  and  _726
REMARK  302  A    between atoms: _726  and  _727
REMARK  303  A    between atoms: _727  and  _728
REMARK  304  A    between atoms: _728  and  _729
REMARK  305  A    between atoms: _738  and  _740
REMARK  306  A    between atoms: _740  and  _741
REMARK  307  A    between atoms: _740  and  _743
REMARK  308  A    between atoms: _743  and  _744
REMARK  309  A    between atoms: _744  and  _745
REMARK                            x       y       z     vdW  Elec       q    Type
REMARK                         _______ _______ _______ _____ _____    ______ ____
ROOT
ATOM      1  CA  ARG A   1      44.166  59.681 129.448  0.00  0.00    +0.145 C 
ENDROOT
BRANCH   1   2
ATOM      2  C   ARG A   1      43.453  60.472 128.363  0.00  0.00    +0.238 C 
ATOM      3  O   ARG A   1      43.813  61.620 128.081  0.00  0.00    -0.274 OA
ATOM      4  N   GLU A   2      42.446  59.850 127.756  0.00  0.00    -0.298 N 
ATOM      5  H   GLU A   2      42.215  58.874 128.030  0.00  0.00    +0.150 HD
BRANCH   4   6
ATOM      6  CA  GLU A   2      41.658  60.502 126.716  0.00  0.00    +0.137 C 
BRANCH   6   7
ATOM      7  C   GLU A   2      40.494  61.259 127.358  0.00  0.00    +0.227 C 
ATOM      8  O   GLU A   2      39.892  60.774 128.311  0.00  0.00    -0.286 OA
ENDBRANCH   6   7
BRANCH   6   9
ATOM      9  CB  GLU A   2      41.135  59.466 125.707  0.00  0.00    +0.039 C 
BRANCH   9  10
ATOM     10  CG  GLU A   2      42.218  58.692 124.989  0.00  0.00    +0.116 C 
BRANCH  10  11
ATOM     11  CD  GLU A   2      41.681  57.801 123.879  0.00  0.00    +0.365 C 
ATOM     12  OE2 GLU A   2      40.569  57.249 124.026  0.00  0.00    -0.246 OA
ATOM     13  OE1 GLU A   2      42.380  57.646 122.856  0.00  0.00    -0.246 OA
ENDBRANCH  10  11
ENDBRANCH   9  10
ENDBRANCH   6   9
ENDBRANCH   4   6
ENDBRANCH   1   2
BRANCH   1  14
ATOM     14  N   ARG A   1      45.627  59.845 129.367  0.00  0.00    -0.238 NA
ATOM     15  H   ARG A   1      46.123  60.372 130.114  0.00  0.00    +0.142 HD
ENDBRANCH   1  14
BRANCH   1  16
ATOM     16  CB  ARG A   1      43.630  60.111 130.811  0.00  0.00    +0.030 C 
BRANCH  16  17
ATOM     17  CG  ARG A   1      44.184  59.293 131.957  0.00  0.00    +0.045 C 
BRANCH  17  18
ATOM     18  CD  ARG A   1      43.427  59.515 133.263  0.00  0.00    +0.174 C 
BRANCH  18  19
ATOM     19  NE  ARG A   1      44.116  58.882 134.380  0.00  0.00    -0.265 N 
ATOM     20  HE  ARG A   1      44.670  59.498 135.009  0.00  0.00    +0.259 HD
ATOM     21  CZ  ARG A   1      44.096  57.578 134.663  0.00  0.00    +0.342 C 
ATOM     22  NH2 ARG A   1      44.775  57.135 135.712  0.00  0.00    -0.292 N 
ATOM     23 HH21 ARG A   1      45.314  57.801 136.302  0.00  0.00    +0.255 HD
ATOM     24 HH22 ARG A   1      44.769  56.121 135.945  0.00  0.00    +0.255 HD
ATOM     25  NH1 ARG A   1      43.405  56.705 133.926  0.00  0.00    -0.292 N 
ATOM     26 HH11 ARG A   1      43.411  55.695 134.174  0.00  0.00    +0.255 HD
ATOM     27 HH12 ARG A   1      42.861  57.035 133.103  0.00  0.00    +0.255 HD
ENDBRANCH  18  19
ENDBRANCH  17  18
ENDBRANCH  16  17
ENDBRANCH   1  16
TORSDOF 11
REMARK  Name = ../refined-set-2016/4f6w/4f6w_pocket.pdb
REMARK  309 active torsions:
REMARK  status: ('A' for Active; 'I' for Inactive)
REMARK    1  A    between atoms: _1  and  _3
REMARK    2  A    between atoms: _3  and  _4
REMARK    3  A    between atoms: _3  and  _6
REMARK    4  A    between atoms: _8  and  _10
REMARK    5  A    between atoms: _10  and  _11
REMARK    6  A    between atoms: _10  and  _13
REMARK    7  A    between atoms: _13  and  _14
REMARK    8  A    between atoms: _14  and  _15
REMARK    9  A    between atoms: _15  and  _16
REMARK   10  A    between atoms: _16  and  _17
REMARK   11  A    between atoms: _21  and  _23
REMARK   12  A    between atoms: _23  and  _24
REMARK   13  A    between atoms: _23  and  _26
REMARK   14  A    between atoms: _29  and  _31
REMARK   15  A    between atoms: _31  and  _32
REMARK   16  A    between atoms: _34  and  _36
REMARK   17  A    between atoms: _36  and  _37
REMARK   18  A    between atoms: _36  and  _39
REMARK   19  A    between atoms: _39  and  _40
REMARK   20  A    between atoms: _40  and  _41
REMARK   21  A    between atoms: _41  and  _42
REMARK   22  A    between atoms: _51  and  _53
REMARK   23  A    between atoms: _53  and  _54
REMARK   24  A    between atoms: _56  and  _58
REMARK   25  A    between atoms: _58  and  _59
REMARK   26  A    between atoms: _58  and  _61
REMARK   27  A    between atoms: _61  and  _62
REMARK   28  A    between atoms: _67  and  _68
REMARK   29  A    between atoms: _70  and  _72
REMARK   30  A    between atoms: _72  and  _73
REMARK   31  A    between atoms: _75  and  _77
REMARK   32  A    between atoms: _77  and  _78
REMARK   33  A    between atoms: _77  and  _80
REMARK   34  A    between atoms: _80  and  _81
REMARK   35  A    between atoms: _86  and  _88
REMARK   36  A    between atoms: _88  and  _89
REMARK   37  A    between atoms: _88  and  _91
REMARK   38  A    between atoms: _94  and  _96
REMARK   39  A    between atoms: _96  and  _97
REMARK   40  A    between atoms: _96  and  _99
REMARK   41  A    between atoms: _99  and  _100
REMARK   42  A    between atoms: _105  and  _106
REMARK   43  A    between atoms: _108  and  _110
REMARK   44  A    between atoms: _110  and  _111
REMARK   45  A    between atoms: _110  and  _113
REMARK   46  A    between atoms: _113  and  _114
REMARK   47  A    between atoms: _114  and  _115
REMARK   48  A    between atoms: _115  and  _116
REMARK   49  A    between atoms: _116  and  _117
REMARK   50  A    between atoms: _121  and  _123
REMARK   51  A    between atoms: _123  and  _124
REMARK   52  A    between atoms: _127  and  _129
REMARK   53  A    between atoms: _129  and  _130
REMARK   54  A    between atoms: _129  and  _132
REMARK   55  A    between atoms: _132  and  _133
REMARK   56  A    between atoms: _138  and  _139
REMARK   57  A    between atoms: _141  and  _143
REMARK   58  A    between atoms: _143  and  _144
REMARK   59  A    between atoms: _147  and  _149
REMARK   60  A    between atoms: _149  and  _150
REMARK   61  A    between atoms: _149  and  _152
REMARK   62  A    between atoms: _152  and  _153
REMARK   63  A    between atoms: _156  and  _158
REMARK   64  A    between atoms: _158  and  _159
REMARK   65  A    between atoms: _158  and  _161
REMARK   66  A    between atoms: _161  and  _162
REMARK   67  A    between atoms: _162  and  _163
REMARK   68  A    between atoms: _163  and  _164
REMARK   69  A    between atoms: _164  and  _165
REMARK   70  A    between atoms: _169  and  _171
REMARK   71  A    between atoms: _171  and  _172
REMARK   72  A    between atoms: _171  and  _174
REMARK   73  A    between atoms: _174  and  _175
REMARK   74  A    between atoms: _175  and  _176
REMARK   75  A    between atoms: _181  and  _183
REMARK   76  A    between atoms: _183  and  _184
REMARK   77  A    between atoms: _183  and  _186
REMARK   78  A    between atoms: _186  and  _187
REMARK   79  A    between atoms: _190  and  _192
REMARK   80  A    between atoms: _192  and  _193
REMARK   81  A    between atoms: _192  and  _195
REMARK   82  A    between atoms: _195  and  _196
REMARK   83  A    between atoms: _198  and  _200
REMARK   84  A    between atoms: _200  and  _201
REMARK   85  A    between atoms: _200  and  _203
REMARK   86  A    between atoms: _203  and  _204
REMARK   87  A    between atoms: _204  and  _205
REMARK   88  A    between atoms: _207  and  _209
REMARK   89  A    between atoms: _209  and  _210
REMARK   90  A    between atoms: _209  and  _212
REMARK   91  A    between atoms: _212  and  _213
REMARK   92  A    between atoms: _215  and  _217
REMARK   93  A    between atoms: _217  and  _218
REMARK   94  A    between atoms: _221  and  _223
REMARK   95  A    between atoms: _223  and  _224
REMARK   96  A    between atoms: _223  and  _226
REMARK   97  A    between atoms: _228  and  _230
REMARK   98  A    between atoms: _230  and  _231
REMARK   99  A    between atoms: _230  and  _233
REMARK  100  A    between atoms: _233  and  _234
REMARK  101  A    between atoms: _234  and  _235
REMARK  102  A    between atoms: _235  and  _236
REMARK  103  A    between atoms: _245  and  _247
REMARK  104  A    between atoms: _247  and  _248
REMARK  105  A    between atoms: _247  and  _250
REMARK  106  A    between atoms: _250  and  _251
REMARK  107  A    between atoms: _251  and  _252
REMARK  108  A    between atoms: _255  and  _257
REMARK  109  A    between atoms: _257  and  _258
REMARK  110  A    between atoms: _257  and  _260
REMARK  111  A    between atoms: _260  and  _261
REMARK  112  A    between atoms: _264  and  _266
REMARK  113  A    between atoms: _266  and  _267
REMARK  114  A    between atoms: _270  and  _272
REMARK  115  A    between atoms: _272  and  _273
REMARK  116  A    between atoms: _272  and  _275
REMARK  117  A    between atoms: _275  and  _276
REMARK  118  A    between atoms: _279  and  _281
REMARK  119  A    between atoms: _281  and  _282
REMARK  120  A    between atoms: _281  and  _284
REMARK  121  A    between atoms: _284  and  _285
REMARK  122  A    between atoms: _288  and  _290
REMARK  123  A    between atoms: _290  and  _291
REMARK  124  A    between atoms: _290  and  _293
REMARK  125  A    between atoms: _293  and  _294
REMARK  126  A    between atoms: _297  and  _299
REMARK  127  A    between atoms: _299  and  _300
REMARK  128  A    between atoms: _299  and  _302
REMARK  129  A    between atoms: _302  and  _303
REMARK  130  A    between atoms: _308  and  _310
REMARK  131  A    between atoms: _310  and  _311
REMARK  132  A    between atoms: _310  and  _313
REMARK  133  A    between atoms: _316  and  _318
REMARK  134  A    between atoms: _318  and  _319
REMARK  135  A    between atoms: _318  and  _321
REMARK  136  A    between atoms: _321  and  _322
REMARK  137  A    between atoms: _325  and  _327
REMARK  138  A    between atoms: _327  and  _328
REMARK  139  A    between atoms: _327  and  _330
REMARK  140  A    between atoms: _330  and  _331
REMARK  141  A    between atoms: _333  and  _335
REMARK  142  A    between atoms: _335  and  _336
REMARK  143  A    between atoms: _335  and  _338
REMARK  144  A    between atoms: _338  and  _339
REMARK  145  A    between atoms: _342  and  _344
REMARK  146  A    between atoms: _344  and  _345
REMARK  147  A    between atoms: _344  and  _347
REMARK  148  A    between atoms: _347  and  _348
REMARK  149  A    between atoms: _351  and  _353
REMARK  150  A    between atoms: _353  and  _354
REMARK  151  A    between atoms: _353  and  _356
REMARK  152  A    between atoms: _356  and  _357
REMARK  153  A    between atoms: _360  and  _362
REMARK  154  A    between atoms: _362  and  _363
REMARK  155  A    between atoms: _362  and  _365
REMARK  156  A    between atoms: _365  and  _366
REMARK  157  A    between atoms: _372  and  _374
REMARK  158  A    between atoms: _374  and  _375
REMARK  159  A    between atoms: _374  and  _377
REMARK  160  A    between atoms: _377  and  _378
REMARK  161  A    between atoms: _381  and  _383
REMARK  162  A    between atoms: _383  and  _384
REMARK  163  A    between atoms: _383  and  _386
REMARK  164  A    between atoms: _386  and  _387
REMARK  165  A    between atoms: _392  and  _393
REMARK  166  A    between atoms: _395  and  _397
REMARK  167  A    between atoms: _397  and  _398
REMARK  168  A    between atoms: _401  and  _403
REMARK  169  A    between atoms: _403  and  _404
REMARK  170  A    between atoms: _403  and  _406
REMARK  171  A    between atoms: _406  and  _407
REMARK  172  A    between atoms: _407  and  _408
REMARK  173  A    between atoms: _411  and  _413
REMARK  174  A    between atoms: _413  and  _414
REMARK  175  A    between atoms: _413  and  _416
REMARK  176  A    between atoms: _416  and  _417
REMARK  177  A    between atoms: _422  and  _424
REMARK  178  A    between atoms: _424  and  _425
REMARK  179  A    between atoms: _424  and  _427
REMARK  180  A    between atoms: _427  and  _428
REMARK  181  A    between atoms: _431  and  _433
REMARK  182  A    between atoms: _433  and  _434
REMARK  183  A    between atoms: _433  and  _436
REMARK  184  A    between atoms: _436  and  _437
REMARK  185  A    between atoms: _440  and  _442
REMARK  186  A    between atoms: _442  and  _443
REMARK  187  A    between atoms: _442  and  _445
REMARK  188  A    between atoms: _445  and  _446
REMARK  189  A    between atoms: _456  and  _458
REMARK  190  A    between atoms: _458  and  _459
REMARK  191  A    between atoms: _458  and  _461
REMARK  192  A    between atoms: _461  and  _462
REMARK  193  A    between atoms: _467  and  _469
REMARK  194  A    between atoms: _469  and  _470
REMARK  195  A    between atoms: _469  and  _472
REMARK  196  A    between atoms: _472  and  _473
REMARK  197  A    between atoms: _476  and  _478
REMARK  198  A    between atoms: _478  and  _479
REMARK  199  A    between atoms: _478  and  _481
REMARK  200  A    between atoms: _481  and  _482
REMARK  201  A    between atoms: _482  and  _483
REMARK  202  A    between atoms: _483  and  _484
REMARK  203  A    between atoms: _484  and  _485
REMARK  204  A    between atoms: _489  and  _491
REMARK  205  A    between atoms: _491  and  _492
REMARK  206  A    between atoms: _494  and  _496
REMARK  207  A    between atoms: _496  and  _497
REMARK  208  A    between atoms: _496  and  _499
REMARK  209  A    between atoms: _499  and  _500
REMARK  210  A    between atoms: _503  and  _505
REMARK  211  A    between atoms: _505  and  _506
REMARK  212  A    between atoms: _505  and  _508
REMARK  213  A    between atoms: _508  and  _509
REMARK  214  A    between atoms: _514  and  _515
REMARK  215  A    between atoms: _517  and  _519
REMARK  216  A    between atoms: _519  and  _520
REMARK  217  A    between atoms: _519  and  _522
REMARK  218  A    between atoms: _522  and  _523
REMARK  219  A    between atoms: _526  and  _528
REMARK  220  A    between atoms: _528  and  _529
REMARK  221  A    between atoms: _528  and  _531
REMARK  222  A    between atoms: _534  and  _536
REMARK  223  A    between atoms: _536  and  _537
REMARK  224  A    between atoms: _536  and  _539
REMARK  225  A    between atoms: _539  and  _540
REMARK  226  A    between atoms: _543  and  _545
REMARK  227  A    between atoms: _545  and  _546
REMARK  228  A    between atoms: _545  and  _548
REMARK  229  A    between atoms: _548  and  _549
REMARK  230  A    between atoms: _554  and  _556
REMARK  231  A    between atoms: _556  and  _557
REMARK  232  A    between atoms: _556  and  _559
REMARK  233  A    between atoms: _559  and  _560
REMARK  234  A    between atoms: _560  and  _561
REMARK  235  A    between atoms: _561  and  _562
REMARK  236  A    between atoms: _571  and  _573
REMARK  237  A    between atoms: _573  and  _574
REMARK  238  A    between atoms: _573  and  _576
REMARK  239  A    between atoms: _576  and  _577
REMARK  240  A    between atoms: _580  and  _582
REMARK  241  A    between atoms: _582  and  _583
REMARK  242  A    between atoms: _582  and  _585
REMARK  243  A    between atoms: _585  and  _586
REMARK  244  A    between atoms: _589  and  _591
REMARK  245  A    between atoms: _591  and  _592
REMARK  246  A    between atoms: _591  and  _594
REMARK  247  A    between atoms: _594  and  _595
REMARK  248  A    between atoms: _595  and  _596
REMARK  249  A    between atoms: _596  and  _597
REMARK  250  A    between atoms: _597  and  _598
REMARK  251  A    between atoms: _603  and  _604
REMARK  252  A    between atoms: _609  and  _611
REMARK  253  A    between atoms: _611  and  _612
REMARK  254  A    between atoms: _615  and  _617
REMARK  255  A    between atoms: _617  and  _618
REMARK  256  A    between atoms: _617  and  _620
REMARK  257  A    between atoms: _620  and  _621
REMARK  258  A    between atoms: _626  and  _628
REMARK  259  A    between atoms: _628  and  _629
REMARK  260  A    between atoms: _628  and  _631
REMARK  261  A    between atoms: _631  and  _632
REMARK  262  A    between atoms: _635  and  _637
REMARK  263  A    between atoms: _637  and  _638
REMARK  264  A    between atoms: _637  and  _640
REMARK  265  A    between atoms: _640  and  _641
REMARK  266  A    between atoms: _644  and  _646
REMARK  267  A    between atoms: _646  and  _647
REMARK  268  A    between atoms: _646  and  _649
REMARK  269  A    between atoms: _652  and  _654
REMARK  270  A    between atoms: _654  and  _655
REMARK  271  A    between atoms: _654  and  _657
REMARK  272  A    between atoms: _657  and  _658
REMARK  273  A    between atoms: _658  and  _659
REMARK  274  A    between atoms: _659  and  _660
REMARK  275  A    between atoms: _660  and  _661
REMARK  276  A    between atoms: _665  and  _667
REMARK  277  A    between atoms: _667  and  _668
REMARK  278  A    between atoms: _667  and  _670
REMARK  279  A    between atoms: _670  and  _671
REMARK  280  A    between atoms: _674  and  _676
REMARK  281  A    between atoms: _676  and  _677
REMARK  282  A    between atoms: _680  and  _682
REMARK  283  A    between atoms: _682  and  _683
REMARK  284  A    between atoms: _682  and  _685
REMARK  285  A    between atoms: _685  and  _686
REMARK  286  A    between atoms: _689  and  _691
REMARK  287  A    between atoms: _691  and  _692
REMARK  288  A    between atoms: _691  and  _694
REMARK  289  A    between atoms: _694  and  _695
REMARK  290  A    between atoms: _695  and  _696
REMARK  291  A    between atoms: _698  and  _700
REMARK  292  A    between atoms: _700  and  _701
REMARK  293  A    between atoms: _703  and  _705
REMARK  294  A    between atoms: _705  and  _706
REMARK  295  A    between atoms: _705  and  _708
REMARK  296  A    between atoms: _708  and  _709
REMARK  297  A    between atoms: _715  and  _717
REMARK  298  A    between atoms: _717  and  _718
REMARK  299  A    between atoms: _721  and  _723
REMARK  300  A    between atoms: _723  and  _724
REMARK  301  A    between atoms: _723  and  _726
REMARK  302  A    between atoms: _726  and  _727
REMARK  303  A    between atoms: _727  and  _728
REMARK  304  A    between atoms: _728  and  _729
REMARK  305  A    between atoms: _738  and  _740
REMARK  306  A    between atoms: _740  and  _741
REMARK  307  A    between atoms: _740  and  _743
REMARK  308  A    between atoms: _743  and  _744
REMARK  309  A    between atoms: _744  and  _745
REMARK                            x       y       z     vdW  Elec       q    Type
REMARK                         _______ _______ _______ _____ _____    ______ ____
ROOT
ATOM      1  O   HOH     1      36.202  56.064 135.698  0.00  0.00    +0.000 OA
ENDROOT
TORSDOF 0
REMARK  Name = ../refined-set-2016/4f6w/4f6w_pocket.pdb
REMARK  309 active torsions:
REMARK  status: ('A' for Active; 'I' for Inactive)
REMARK    1  A    between atoms: _1  and  _3
REMARK    2  A    between atoms: _3  and  _4
REMARK    3  A    between atoms: _3  and  _6
REMARK    4  A    between atoms: _8  and  _10
REMARK    5  A    between atoms: _10  and  _11
REMARK    6  A    between atoms: _10  and  _13
REMARK    7  A    between atoms: _13  and  _14
REMARK    8  A    between atoms: _14  and  _15
REMARK    9  A    between atoms: _15  and  _16
REMARK   10  A    between atoms: _16  and  _17
REMARK   11  A    between atoms: _21  and  _23
REMARK   12  A    between atoms: _23  and  _24
REMARK   13  A    between atoms: _23  and  _26
REMARK   14  A    between atoms: _29  and  _31
REMARK   15  A    between atoms: _31  and  _32
REMARK   16  A    between atoms: _34  and  _36
REMARK   17  A    between atoms: _36  and  _37
REMARK   18  A    between atoms: _36  and  _39
REMARK   19  A    between atoms: _39  and  _40
REMARK   20  A    between atoms: _40  and  _41
REMARK   21  A    between atoms: _41  and  _42
REMARK   22  A    between atoms: _51  and  _53
REMARK   23  A    between atoms: _53  and  _54
REMARK   24  A    between atoms: _56  and  _58
REMARK   25  A    between atoms: _58  and  _59
REMARK   26  A    between atoms: _58  and  _61
REMARK   27  A    between atoms: _61  and  _62
REMARK   28  A    between atoms: _67  and  _68
REMARK   29  A    between atoms: _70  and  _72
REMARK   30  A    between atoms: _72  and  _73
REMARK   31  A    between atoms: _75  and  _77
REMARK   32  A    between atoms: _77  and  _78
REMARK   33  A    between atoms: _77  and  _80
REMARK   34  A    between atoms: _80  and  _81
REMARK   35  A    between atoms: _86  and  _88
REMARK   36  A    between atoms: _88  and  _89
REMARK   37  A    between atoms: _88  and  _91
REMARK   38  A    between atoms: _94  and  _96
REMARK   39  A    between atoms: _96  and  _97
REMARK   40  A    between atoms: _96  and  _99
REMARK   41  A    between atoms: _99  and  _100
REMARK   42  A    between atoms: _105  and  _106
REMARK   43  A    between atoms: _108  and  _110
REMARK   44  A    between atoms: _110  and  _111
REMARK   45  A    between atoms: _110  and  _113
REMARK   46  A    between atoms: _113  and  _114
REMARK   47  A    between atoms: _114  and  _115
REMARK   48  A    between atoms: _115  and  _116
REMARK   49  A    between atoms: _116  and  _117
REMARK   50  A    between atoms: _121  and  _123
REMARK   51  A    between atoms: _123  and  _124
REMARK   52  A    between atoms: _127  and  _129
REMARK   53  A    between atoms: _129  and  _130
REMARK   54  A    between atoms: _129  and  _132
REMARK   55  A    between atoms: _132  and  _133
REMARK   56  A    between atoms: _138  and  _139
REMARK   57  A    between atoms: _141  and  _143
REMARK   58  A    between atoms: _143  and  _144
REMARK   59  A    between atoms: _147  and  _149
REMARK   60  A    between atoms: _149  and  _150
REMARK   61  A    between atoms: _149  and  _152
REMARK   62  A    between atoms: _152  and  _153
REMARK   63  A    between atoms: _156  and  _158
REMARK   64  A    between atoms: _158  and  _159
REMARK   65  A    between atoms: _158  and  _161
REMARK   66  A    between atoms: _161  and  _162
REMARK   67  A    between atoms: _162  and  _163
REMARK   68  A    between atoms: _163  and  _164
REMARK   69  A    between atoms: _164  and  _165
REMARK   70  A    between atoms: _169  and  _171
REMARK   71  A    between atoms: _171  and  _172
REMARK   72  A    between atoms: _171  and  _174
REMARK   73  A    between atoms: _174  and  _175
REMARK   74  A    between atoms: _175  and  _176
REMARK   75  A    between atoms: _181  and  _183
REMARK   76  A    between atoms: _183  and  _184
REMARK   77  A    between atoms: _183  and  _186
REMARK   78  A    between atoms: _186  and  _187
REMARK   79  A    between atoms: _190  and  _192
REMARK   80  A    between atoms: _192  and  _193
REMARK   81  A    between atoms: _192  and  _195
REMARK   82  A    between atoms: _195  and  _196
REMARK   83  A    between atoms: _198  and  _200
REMARK   84  A    between atoms: _200  and  _201
REMARK   85  A    between atoms: _200  and  _203
REMARK   86  A    between atoms: _203  and  _204
REMARK   87  A    between atoms: _204  and  _205
REMARK   88  A    between atoms: _207  and  _209
REMARK   89  A    between atoms: _209  and  _210
REMARK   90  A    between atoms: _209  and  _212
REMARK   91  A    between atoms: _212  and  _213
REMARK   92  A    between atoms: _215  and  _217
REMARK   93  A    between atoms: _217  and  _218
REMARK   94  A    between atoms: _221  and  _223
REMARK   95  A    between atoms: _223  and  _224
REMARK   96  A    between atoms: _223  and  _226
REMARK   97  A    between atoms: _228  and  _230
REMARK   98  A    between atoms: _230  and  _231
REMARK   99  A    between atoms: _230  and  _233
REMARK  100  A    between atoms: _233  and  _234
REMARK  101  A    between atoms: _234  and  _235
REMARK  102  A    between atoms: _235  and  _236
REMARK  103  A    between atoms: _245  and  _247
REMARK  104  A    between atoms: _247  and  _248
REMARK  105  A    between atoms: _247  and  _250
REMARK  106  A    between atoms: _250  and  _251
REMARK  107  A    between atoms: _251  and  _252
REMARK  108  A    between atoms: _255  and  _257
REMARK  109  A    between atoms: _257  and  _258
REMARK  110  A    between atoms: _257  and  _260
REMARK  111  A    between atoms: _260  and  _261
REMARK  112  A    between atoms: _264  and  _266
REMARK  113  A    between atoms: _266  and  _267
REMARK  114  A    between atoms: _270  and  _272
REMARK  115  A    between atoms: _272  and  _273
REMARK  116  A    between atoms: _272  and  _275
REMARK  117  A    between atoms: _275  and  _276
REMARK  118  A    between atoms: _279  and  _281
REMARK  119  A    between atoms: _281  and  _282
REMARK  120  A    between atoms: _281  and  _284
REMARK  121  A    between atoms: _284  and  _285
REMARK  122  A    between atoms: _288  and  _290
REMARK  123  A    between atoms: _290  and  _291
REMARK  124  A    between atoms: _290  and  _293
REMARK  125  A    between atoms: _293  and  _294
REMARK  126  A    between atoms: _297  and  _299
REMARK  127  A    between atoms: _299  and  _300
REMARK  128  A    between atoms: _299  and  _302
REMARK  129  A    between atoms: _302  and  _303
REMARK  130  A    between atoms: _308  and  _310
REMARK  131  A    between atoms: _310  and  _311
REMARK  132  A    between atoms: _310  and  _313
REMARK  133  A    between atoms: _316  and  _318
REMARK  134  A    between atoms: _318  and  _319
REMARK  135  A    between atoms: _318  and  _321
REMARK  136  A    between atoms: _321  and  _322
REMARK  137  A    between atoms: _325  and  _327
REMARK  138  A    between atoms: _327  and  _328
REMARK  139  A    between atoms: _327  and  _330
REMARK  140  A    between atoms: _330  and  _331
REMARK  141  A    between atoms: _333  and  _335
REMARK  142  A    between atoms: _335  and  _336
REMARK  143  A    between atoms: _335  and  _338
REMARK  144  A    between atoms: _338  and  _339
REMARK  145  A    between atoms: _342  and  _344
REMARK  146  A    between atoms: _344  and  _345
REMARK  147  A    between atoms: _344  and  _347
REMARK  148  A    between atoms: _347  and  _348
REMARK  149  A    between atoms: _351  and  _353
REMARK  150  A    between atoms: _353  and  _354
REMARK  151  A    between atoms: _353  and  _356
REMARK  152  A    between atoms: _356  and  _357
REMARK  153  A    between atoms: _360  and  _362
REMARK  154  A    between atoms: _362  and  _363
REMARK  155  A    between atoms: _362  and  _365
REMARK  156  A    between atoms: _365  and  _366
REMARK  157  A    between atoms: _372  and  _374
REMARK  158  A    between atoms: _374  and  _375
REMARK  159  A    between atoms: _374  and  _377
REMARK  160  A    between atoms: _377  and  _378
REMARK  161  A    between atoms: _381  and  _383
REMARK  162  A    between atoms: _383  and  _384
REMARK  163  A    between atoms: _383  and  _386
REMARK  164  A    between atoms: _386  and  _387
REMARK  165  A    between atoms: _392  and  _393
REMARK  166  A    between atoms: _395  and  _397
REMARK  167  A    between atoms: _397  and  _398
REMARK  168  A    between atoms: _401  and  _403
REMARK  169  A    between atoms: _403  and  _404
REMARK  170  A    between atoms: _403  and  _406
REMARK  171  A    between atoms: _406  and  _407
REMARK  172  A    between atoms: _407  and  _408
REMARK  173  A    between atoms: _411  and  _413
REMARK  174  A    between atoms: _413  and  _414
REMARK  175  A    between atoms: _413  and  _416
REMARK  176  A    between atoms: _416  and  _417
REMARK  177  A    between atoms: _422  and  _424
REMARK  178  A    between atoms: _424  and  _425
REMARK  179  A    between atoms: _424  and  _427
REMARK  180  A    between atoms: _427  and  _428
REMARK  181  A    between atoms: _431  and  _433
REMARK  182  A    between atoms: _433  and  _434
REMARK  183  A    between atoms: _433  and  _436
REMARK  184  A    between atoms: _436  and  _437
REMARK  185  A    between atoms: _440  and  _442
REMARK  186  A    between atoms: _442  and  _443
REMARK  187  A    between atoms: _442  and  _445
REMARK  188  A    between atoms: _445  and  _446
REMARK  189  A    between atoms: _456  and  _458
REMARK  190  A    between atoms: _458  and  _459
REMARK  191  A    between atoms: _458  and  _461
REMARK  192  A    between atoms: _461  and  _462
REMARK  193  A    between atoms: _467  and  _469
REMARK  194  A    between atoms: _469  and  _470
REMARK  195  A    between atoms: _469  and  _472
REMARK  196  A    between atoms: _472  and  _473
REMARK  197  A    between atoms: _476  and  _478
REMARK  198  A    between atoms: _478  and  _479
REMARK  199  A    between atoms: _478  and  _481
REMARK  200  A    between atoms: _481  and  _482
REMARK  201  A    between atoms: _482  and  _483
REMARK  202  A    between atoms: _483  and  _484
REMARK  203  A    between atoms: _484  and  _485
REMARK  204  A    between atoms: _489  and  _491
REMARK  205  A    between atoms: _491  and  _492
REMARK  206  A    between atoms: _494  and  _496
REMARK  207  A    between atoms: _496  and  _497
REMARK  208  A    between atoms: _496  and  _499
REMARK  209  A    between atoms: _499  and  _500
REMARK  210  A    between atoms: _503  and  _505
REMARK  211  A    between atoms: _505  and  _506
REMARK  212  A    between atoms: _505  and  _508
REMARK  213  A    between atoms: _508  and  _509
REMARK  214  A    between atoms: _514  and  _515
REMARK  215  A    between atoms: _517  and  _519
REMARK  216  A    between atoms: _519  and  _520
REMARK  217  A    between atoms: _519  and  _522
REMARK  218  A    between atoms: _522  and  _523
REMARK  219  A    between atoms: _526  and  _528
REMARK  220  A    between atoms: _528  and  _529
REMARK  221  A    between atoms: _528  and  _531
REMARK  222  A    between atoms: _534  and  _536
REMARK  223  A    between atoms: _536  and  _537
REMARK  224  A    between atoms: _536  and  _539
REMARK  225  A    between atoms: _539  and  _540
REMARK  226  A    between atoms: _543  and  _545
REMARK  227  A    between atoms: _545  and  _546
REMARK  228  A    between atoms: _545  and  _548
REMARK  229  A    between atoms: _548  and  _549
REMARK  230  A    between atoms: _554  and  _556
REMARK  231  A    between atoms: _556  and  _557
REMARK  232  A    between atoms: _556  and  _559
REMARK  233  A    between atoms: _559  and  _560
REMARK  234  A    between atoms: _560  and  _561
REMARK  235  A    between atoms: _561  and  _562
REMARK  236  A    between atoms: _571  and  _573
REMARK  237  A    between atoms: _573  and  _574
REMARK  238  A    between atoms: _573  and  _576
REMARK  239  A    between atoms: _576  and  _577
REMARK  240  A    between atoms: _580  and  _582
REMARK  241  A    between atoms: _582  and  _583
REMARK  242  A    between atoms: _582  and  _585
REMARK  243  A    between atoms: _585  and  _586
REMARK  244  A    between atoms: _589  and  _591
REMARK  245  A    between atoms: _591  and  _592
REMARK  246  A    between atoms: _591  and  _594
REMARK  247  A    between atoms: _594  and  _595
REMARK  248  A    between atoms: _595  and  _596
REMARK  249  A    between atoms: _596  and  _597
REMARK  250  A    between atoms: _597  and  _598
REMARK  251  A    between atoms: _603  and  _604
REMARK  252  A    between atoms: _609  and  _611
REMARK  253  A    between atoms: _611  and  _612
REMARK  254  A    between atoms: _615  and  _617
REMARK  255  A    between atoms: _617  and  _618
REMARK  256  A    between atoms: _617  and  _620
REMARK  257  A    between atoms: _620  and  _621
REMARK  258  A    between atoms: _626  and  _628
REMARK  259  A    between atoms: _628  and  _629
REMARK  260  A    between atoms: _628  and  _631
REMARK  261  A    between atoms: _631  and  _632
REMARK  262  A    between atoms: _635  and  _637
REMARK  263  A    between atoms: _637  and  _638
REMARK  264  A    between atoms: _637  and  _640
REMARK  265  A    between atoms: _640  and  _641
REMARK  266  A    between atoms: _644  and  _646
REMARK  267  A    between atoms: _646  and  _647
REMARK  268  A    between atoms: _646  and  _649
REMARK  269  A    between atoms: _652  and  _654
REMARK  270  A    between atoms: _654  and  _655
REMARK  271  A    between atoms: _654  and  _657
REMARK  272  A    between atoms: _657  and  _658
REMARK  273  A    between atoms: _658  and  _659
REMARK  274  A    between atoms: _659  and  _660
REMARK  275  A    between atoms: _660  and  _661
REMARK  276  A    between atoms: _665  and  _667
REMARK  277  A    between atoms: _667  and  _668
REMARK  278  A    between atoms: _667  and  _670
REMARK  279  A    between atoms: _670  and  _671
REMARK  280  A    between atoms: _674  and  _676
REMARK  281  A    between atoms: _676  and  _677
REMARK  282  A    between atoms: _680  and  _682
REMARK  283  A    between atoms: _682  and  _683
REMARK  284  A    between atoms: _682  and  _685
REMARK  285  A    between atoms: _685  and  _686
REMARK  286  A    between atoms: _689  and  _691
REMARK  287  A    between atoms: _691  and  _692
REMARK  288  A    between atoms: _691  and  _694
REMARK  289  A    between atoms: _694  and  _695
REMARK  290  A    between atoms: _695  and  _696
REMARK  291  A    between atoms: _698  and  _700
REMARK  292  A    between atoms: _700  and  _701
REMARK  293  A    between atoms: _703  and  _705
REMARK  294  A    between atoms: _705  and  _706
REMARK  295  A    between atoms: _705  and  _708
REMARK  296  A    between atoms: _708  and  _709
REMARK  297  A    between atoms: _715  and  _717
REMARK  298  A    between atoms: _717  and  _718
REMARK  299  A    between atoms: _721  and  _723
REMARK  300  A    between atoms: _723  and  _724
REMARK  301  A    between atoms: _723  and  _726
REMARK  302  A    between atoms: _726  and  _727
REMARK  303  A    between atoms: _727  and  _728
REMARK  304  A    between atoms: _728  and  _729
REMARK  305  A    between atoms: _738  and  _740
REMARK  306  A    between atoms: _740  and  _741
REMARK  307  A    between atoms: _740  and  _743
REMARK  308  A    between atoms: _743  and  _744
REMARK  309  A    between atoms: _744  and  _745
REMARK                            x       y       z     vdW  Elec       q    Type
REMARK                         _______ _______ _______ _____ _____    ______ ____
ROOT
ATOM      1  O   HOH     1      44.343  63.026 151.520  0.00  0.00    +0.000 OA
ENDROOT
TORSDOF 0
REMARK  Name = ../refined-set-2016/4f6w/4f6w_pocket.pdb
REMARK  309 active torsions:
REMARK  status: ('A' for Active; 'I' for Inactive)
REMARK    1  A    between atoms: _1  and  _3
REMARK    2  A    between atoms: _3  and  _4
REMARK    3  A    between atoms: _3  and  _6
REMARK    4  A    between atoms: _8  and  _10
REMARK    5  A    between atoms: _10  and  _11
REMARK    6  A    between atoms: _10  and  _13
REMARK    7  A    between atoms: _13  and  _14
REMARK    8  A    between atoms: _14  and  _15
REMARK    9  A    between atoms: _15  and  _16
REMARK   10  A    between atoms: _16  and  _17
REMARK   11  A    between atoms: _21  and  _23
REMARK   12  A    between atoms: _23  and  _24
REMARK   13  A    between atoms: _23  and  _26
REMARK   14  A    between atoms: _29  and  _31
REMARK   15  A    between atoms: _31  and  _32
REMARK   16  A    between atoms: _34  and  _36
REMARK   17  A    between atoms: _36  and  _37
REMARK   18  A    between atoms: _36  and  _39
REMARK   19  A    between atoms: _39  and  _40
REMARK   20  A    between atoms: _40  and  _41
REMARK   21  A    between atoms: _41  and  _42
REMARK   22  A    between atoms: _51  and  _53
REMARK   23  A    between atoms: _53  and  _54
REMARK   24  A    between atoms: _56  and  _58
REMARK   25  A    between atoms: _58  and  _59
REMARK   26  A    between atoms: _58  and  _61
REMARK   27  A    between atoms: _61  and  _62
REMARK   28  A    between atoms: _67  and  _68
REMARK   29  A    between atoms: _70  and  _72
REMARK   30  A    between atoms: _72  and  _73
REMARK   31  A    between atoms: _75  and  _77
REMARK   32  A    between atoms: _77  and  _78
REMARK   33  A    between atoms: _77  and  _80
REMARK   34  A    between atoms: _80  and  _81
REMARK   35  A    between atoms: _86  and  _88
REMARK   36  A    between atoms: _88  and  _89
REMARK   37  A    between atoms: _88  and  _91
REMARK   38  A    between atoms: _94  and  _96
REMARK   39  A    between atoms: _96  and  _97
REMARK   40  A    between atoms: _96  and  _99
REMARK   41  A    between atoms: _99  and  _100
REMARK   42  A    between atoms: _105  and  _106
REMARK   43  A    between atoms: _108  and  _110
REMARK   44  A    between atoms: _110  and  _111
REMARK   45  A    between atoms: _110  and  _113
REMARK   46  A    between atoms: _113  and  _114
REMARK   47  A    between atoms: _114  and  _115
REMARK   48  A    between atoms: _115  and  _116
REMARK   49  A    between atoms: _116  and  _117
REMARK   50  A    between atoms: _121  and  _123
REMARK   51  A    between atoms: _123  and  _124
REMARK   52  A    between atoms: _127  and  _129
REMARK   53  A    between atoms: _129  and  _130
REMARK   54  A    between atoms: _129  and  _132
REMARK   55  A    between atoms: _132  and  _133
REMARK   56  A    between atoms: _138  and  _139
REMARK   57  A    between atoms: _141  and  _143
REMARK   58  A    between atoms: _143  and  _144
REMARK   59  A    between atoms: _147  and  _149
REMARK   60  A    between atoms: _149  and  _150
REMARK   61  A    between atoms: _149  and  _152
REMARK   62  A    between atoms: _152  and  _153
REMARK   63  A    between atoms: _156  and  _158
REMARK   64  A    between atoms: _158  and  _159
REMARK   65  A    between atoms: _158  and  _161
REMARK   66  A    between atoms: _161  and  _162
REMARK   67  A    between atoms: _162  and  _163
REMARK   68  A    between atoms: _163  and  _164
REMARK   69  A    between atoms: _164  and  _165
REMARK   70  A    between atoms: _169  and  _171
REMARK   71  A    between atoms: _171  and  _172
REMARK   72  A    between atoms: _171  and  _174
REMARK   73  A    between atoms: _174  and  _175
REMARK   74  A    between atoms: _175  and  _176
REMARK   75  A    between atoms: _181  and  _183
REMARK   76  A    between atoms: _183  and  _184
REMARK   77  A    between atoms: _183  and  _186
REMARK   78  A    between atoms: _186  and  _187
REMARK   79  A    between atoms: _190  and  _192
REMARK   80  A    between atoms: _192  and  _193
REMARK   81  A    between atoms: _192  and  _195
REMARK   82  A    between atoms: _195  and  _196
REMARK   83  A    between atoms: _198  and  _200
REMARK   84  A    between atoms: _200  and  _201
REMARK   85  A    between atoms: _200  and  _203
REMARK   86  A    between atoms: _203  and  _204
REMARK   87  A    between atoms: _204  and  _205
REMARK   88  A    between atoms: _207  and  _209
REMARK   89  A    between atoms: _209  and  _210
REMARK   90  A    between atoms: _209  and  _212
REMARK   91  A    between atoms: _212  and  _213
REMARK   92  A    between atoms: _215  and  _217
REMARK   93  A    between atoms: _217  and  _218
REMARK   94  A    between atoms: _221  and  _223
REMARK   95  A    between atoms: _223  and  _224
REMARK   96  A    between atoms: _223  and  _226
REMARK   97  A    between atoms: _228  and  _230
REMARK   98  A    between atoms: _230  and  _231
REMARK   99  A    between atoms: _230  and  _233
REMARK  100  A    between atoms: _233  and  _234
REMARK  101  A    between atoms: _234  and  _235
REMARK  102  A    between atoms: _235  and  _236
REMARK  103  A    between atoms: _245  and  _247
REMARK  104  A    between atoms: _247  and  _248
REMARK  105  A    between atoms: _247  and  _250
REMARK  106  A    between atoms: _250  and  _251
REMARK  107  A    between atoms: _251  and  _252
REMARK  108  A    between atoms: _255  and  _257
REMARK  109  A    between atoms: _257  and  _258
REMARK  110  A    between atoms: _257  and  _260
REMARK  111  A    between atoms: _260  and  _261
REMARK  112  A    between atoms: _264  and  _266
REMARK  113  A    between atoms: _266  and  _267
REMARK  114  A    between atoms: _270  and  _272
REMARK  115  A    between atoms: _272  and  _273
REMARK  116  A    between atoms: _272  and  _275
REMARK  117  A    between atoms: _275  and  _276
REMARK  118  A    between atoms: _279  and  _281
REMARK  119  A    between atoms: _281  and  _282
REMARK  120  A    between atoms: _281  and  _284
REMARK  121  A    between atoms: _284  and  _285
REMARK  122  A    between atoms: _288  and  _290
REMARK  123  A    between atoms: _290  and  _291
REMARK  124  A    between atoms: _290  and  _293
REMARK  125  A    between atoms: _293  and  _294
REMARK  126  A    between atoms: _297  and  _299
REMARK  127  A    between atoms: _299  and  _300
REMARK  128  A    between atoms: _299  and  _302
REMARK  129  A    between atoms: _302  and  _303
REMARK  130  A    between atoms: _308  and  _310
REMARK  131  A    between atoms: _310  and  _311
REMARK  132  A    between atoms: _310  and  _313
REMARK  133  A    between atoms: _316  and  _318
REMARK  134  A    between atoms: _318  and  _319
REMARK  135  A    between atoms: _318  and  _321
REMARK  136  A    between atoms: _321  and  _322
REMARK  137  A    between atoms: _325  and  _327
REMARK  138  A    between atoms: _327  and  _328
REMARK  139  A    between atoms: _327  and  _330
REMARK  140  A    between atoms: _330  and  _331
REMARK  141  A    between atoms: _333  and  _335
REMARK  142  A    between atoms: _335  and  _336
REMARK  143  A    between atoms: _335  and  _338
REMARK  144  A    between atoms: _338  and  _339
REMARK  145  A    between atoms: _342  and  _344
REMARK  146  A    between atoms: _344  and  _345
REMARK  147  A    between atoms: _344  and  _347
REMARK  148  A    between atoms: _347  and  _348
REMARK  149  A    between atoms: _351  and  _353
REMARK  150  A    between atoms: _353  and  _354
REMARK  151  A    between atoms: _353  and  _356
REMARK  152  A    between atoms: _356  and  _357
REMARK  153  A    between atoms: _360  and  _362
REMARK  154  A    between atoms: _362  and  _363
REMARK  155  A    between atoms: _362  and  _365
REMARK  156  A    between atoms: _365  and  _366
REMARK  157  A    between atoms: _372  and  _374
REMARK  158  A    between atoms: _374  and  _375
REMARK  159  A    between atoms: _374  and  _377
REMARK  160  A    between atoms: _377  and  _378
REMARK  161  A    between atoms: _381  and  _383
REMARK  162  A    between atoms: _383  and  _384
REMARK  163  A    between atoms: _383  and  _386
REMARK  164  A    between atoms: _386  and  _387
REMARK  165  A    between atoms: _392  and  _393
REMARK  166  A    between atoms: _395  and  _397
REMARK  167  A    between atoms: _397  and  _398
REMARK  168  A    between atoms: _401  and  _403
REMARK  169  A    between atoms: _403  and  _404
REMARK  170  A    between atoms: _403  and  _406
REMARK  171  A    between atoms: _406  and  _407
REMARK  172  A    between atoms: _407  and  _408
REMARK  173  A    between atoms: _411  and  _413
REMARK  174  A    between atoms: _413  and  _414
REMARK  175  A    between atoms: _413  and  _416
REMARK  176  A    between atoms: _416  and  _417
REMARK  177  A    between atoms: _422  and  _424
REMARK  178  A    between atoms: _424  and  _425
REMARK  179  A    between atoms: _424  and  _427
REMARK  180  A    between atoms: _427  and  _428
REMARK  181  A    between atoms: _431  and  _433
REMARK  182  A    between atoms: _433  and  _434
REMARK  183  A    between atoms: _433  and  _436
REMARK  184  A    between atoms: _436  and  _437
REMARK  185  A    between atoms: _440  and  _442
REMARK  186  A    between atoms: _442  and  _443
REMARK  187  A    between atoms: _442  and  _445
REMARK  188  A    between atoms: _445  and  _446
REMARK  189  A    between atoms: _456  and  _458
REMARK  190  A    between atoms: _458  and  _459
REMARK  191  A    between atoms: _458  and  _461
REMARK  192  A    between atoms: _461  and  _462
REMARK  193  A    between atoms: _467  and  _469
REMARK  194  A    between atoms: _469  and  _470
REMARK  195  A    between atoms: _469  and  _472
REMARK  196  A    between atoms: _472  and  _473
REMARK  197  A    between atoms: _476  and  _478
REMARK  198  A    between atoms: _478  and  _479
REMARK  199  A    between atoms: _478  and  _481
REMARK  200  A    between atoms: _481  and  _482
REMARK  201  A    between atoms: _482  and  _483
REMARK  202  A    between atoms: _483  and  _484
REMARK  203  A    between atoms: _484  and  _485
REMARK  204  A    between atoms: _489  and  _491
REMARK  205  A    between atoms: _491  and  _492
REMARK  206  A    between atoms: _494  and  _496
REMARK  207  A    between atoms: _496  and  _497
REMARK  208  A    between atoms: _496  and  _499
REMARK  209  A    between atoms: _499  and  _500
REMARK  210  A    between atoms: _503  and  _505
REMARK  211  A    between atoms: _505  and  _506
REMARK  212  A    between atoms: _505  and  _508
REMARK  213  A    between atoms: _508  and  _509
REMARK  214  A    between atoms: _514  and  _515
REMARK  215  A    between atoms: _517  and  _519
REMARK  216  A    between atoms: _519  and  _520
REMARK  217  A    between atoms: _519  and  _522
REMARK  218  A    between atoms: _522  and  _523
REMARK  219  A    between atoms: _526  and  _528
REMARK  220  A    between atoms: _528  and  _529
REMARK  221  A    between atoms: _528  and  _531
REMARK  222  A    between atoms: _534  and  _536
REMARK  223  A    between atoms: _536  and  _537
REMARK  224  A    between atoms: _536  and  _539
REMARK  225  A    between atoms: _539  and  _540
REMARK  226  A    between atoms: _543  and  _545
REMARK  227  A    between atoms: _545  and  _546
REMARK  228  A    between atoms: _545  and  _548
REMARK  229  A    between atoms: _548  and  _549
REMARK  230  A    between atoms: _554  and  _556
REMARK  231  A    between atoms: _556  and  _557
REMARK  232  A    between atoms: _556  and  _559
REMARK  233  A    between atoms: _559  and  _560
REMARK  234  A    between atoms: _560  and  _561
REMARK  235  A    between atoms: _561  and  _562
REMARK  236  A    between atoms: _571  and  _573
REMARK  237  A    between atoms: _573  and  _574
REMARK  238  A    between atoms: _573  and  _576
REMARK  239  A    between atoms: _576  and  _577
REMARK  240  A    between atoms: _580  and  _582
REMARK  241  A    between atoms: _582  and  _583
REMARK  242  A    between atoms: _582  and  _585
REMARK  243  A    between atoms: _585  and  _586
REMARK  244  A    between atoms: _589  and  _591
REMARK  245  A    between atoms: _591  and  _592
REMARK  246  A    between atoms: _591  and  _594
REMARK  247  A    between atoms: _594  and  _595
REMARK  248  A    between atoms: _595  and  _596
REMARK  249  A    between atoms: _596  and  _597
REMARK  250  A    between atoms: _597  and  _598
REMARK  251  A    between atoms: _603  and  _604
REMARK  252  A    between atoms: _609  and  _611
REMARK  253  A    between atoms: _611  and  _612
REMARK  254  A    between atoms: _615  and  _617
REMARK  255  A    between atoms: _617  and  _618
REMARK  256  A    between atoms: _617  and  _620
REMARK  257  A    between atoms: _620  and  _621
REMARK  258  A    between atoms: _626  and  _628
REMARK  259  A    between atoms: _628  and  _629
REMARK  260  A    between atoms: _628  and  _631
REMARK  261  A    between atoms: _631  and  _632
REMARK  262  A    between atoms: _635  and  _637
REMARK  263  A    between atoms: _637  and  _638
REMARK  264  A    between atoms: _637  and  _640
REMARK  265  A    between atoms: _640  and  _641
REMARK  266  A    between atoms: _644  and  _646
REMARK  267  A    between atoms: _646  and  _647
REMARK  268  A    between atoms: _646  and  _649
REMARK  269  A    between atoms: _652  and  _654
REMARK  270  A    between atoms: _654  and  _655
REMARK  271  A    between atoms: _654  and  _657
REMARK  272  A    between atoms: _657  and  _658
REMARK  273  A    between atoms: _658  and  _659
REMARK  274  A    between atoms: _659  and  _660
REMARK  275  A    between atoms: _660  and  _661
REMARK  276  A    between atoms: _665  and  _667
REMARK  277  A    between atoms: _667  and  _668
REMARK  278  A    between atoms: _667  and  _670
REMARK  279  A    between atoms: _670  and  _671
REMARK  280  A    between atoms: _674  and  _676
REMARK  281  A    between atoms: _676  and  _677
REMARK  282  A    between atoms: _680  and  _682
REMARK  283  A    between atoms: _682  and  _683
REMARK  284  A    between atoms: _682  and  _685
REMARK  285  A    between atoms: _685  and  _686
REMARK  286  A    between atoms: _689  and  _691
REMARK  287  A    between atoms: _691  and  _692
REMARK  288  A    between atoms: _691  and  _694
REMARK  289  A    between atoms: _694  and  _695
REMARK  290  A    between atoms: _695  and  _696
REMARK  291  A    between atoms: _698  and  _700
REMARK  292  A    between atoms: _700  and  _701
REMARK  293  A    between atoms: _703  and  _705
REMARK  294  A    between atoms: _705  and  _706
REMARK  295  A    between atoms: _705  and  _708
REMARK  296  A    between atoms: _708  and  _709
REMARK  297  A    between atoms: _715  and  _717
REMARK  298  A    between atoms: _717  and  _718
REMARK  299  A    between atoms: _721  and  _723
REMARK  300  A    between atoms: _723  and  _724
REMARK  301  A    between atoms: _723  and  _726
REMARK  302  A    between atoms: _726  and  _727
REMARK  303  A    between atoms: _727  and  _728
REMARK  304  A    between atoms: _728  and  _729
REMARK  305  A    between atoms: _738  and  _740
REMARK  306  A    between atoms: _740  and  _741
REMARK  307  A    between atoms: _740  and  _743
REMARK  308  A    between atoms: _743  and  _744
REMARK  309  A    between atoms: _744  and  _745
REMARK                            x       y       z     vdW  Elec       q    Type
REMARK                         _______ _______ _______ _____ _____    ______ ____
ROOT
ATOM      1  O   HOH     1      48.286  60.843 150.964  0.00  0.00    +0.000 OA
ENDROOT
TORSDOF 0
REMARK  Name = ../refined-set-2016/4f6w/4f6w_pocket.pdb
REMARK  309 active torsions:
REMARK  status: ('A' for Active; 'I' for Inactive)
REMARK    1  A    between atoms: _1  and  _3
REMARK    2  A    between atoms: _3  and  _4
REMARK    3  A    between atoms: _3  and  _6
REMARK    4  A    between atoms: _8  and  _10
REMARK    5  A    between atoms: _10  and  _11
REMARK    6  A    between atoms: _10  and  _13
REMARK    7  A    between atoms: _13  and  _14
REMARK    8  A    between atoms: _14  and  _15
REMARK    9  A    between atoms: _15  and  _16
REMARK   10  A    between atoms: _16  and  _17
REMARK   11  A    between atoms: _21  and  _23
REMARK   12  A    between atoms: _23  and  _24
REMARK   13  A    between atoms: _23  and  _26
REMARK   14  A    between atoms: _29  and  _31
REMARK   15  A    between atoms: _31  and  _32
REMARK   16  A    between atoms: _34  and  _36
REMARK   17  A    between atoms: _36  and  _37
REMARK   18  A    between atoms: _36  and  _39
REMARK   19  A    between atoms: _39  and  _40
REMARK   20  A    between atoms: _40  and  _41
REMARK   21  A    between atoms: _41  and  _42
REMARK   22  A    between atoms: _51  and  _53
REMARK   23  A    between atoms: _53  and  _54
REMARK   24  A    between atoms: _56  and  _58
REMARK   25  A    between atoms: _58  and  _59
REMARK   26  A    between atoms: _58  and  _61
REMARK   27  A    between atoms: _61  and  _62
REMARK   28  A    between atoms: _67  and  _68
REMARK   29  A    between atoms: _70  and  _72
REMARK   30  A    between atoms: _72  and  _73
REMARK   31  A    between atoms: _75  and  _77
REMARK   32  A    between atoms: _77  and  _78
REMARK   33  A    between atoms: _77  and  _80
REMARK   34  A    between atoms: _80  and  _81
REMARK   35  A    between atoms: _86  and  _88
REMARK   36  A    between atoms: _88  and  _89
REMARK   37  A    between atoms: _88  and  _91
REMARK   38  A    between atoms: _94  and  _96
REMARK   39  A    between atoms: _96  and  _97
REMARK   40  A    between atoms: _96  and  _99
REMARK   41  A    between atoms: _99  and  _100
REMARK   42  A    between atoms: _105  and  _106
REMARK   43  A    between atoms: _108  and  _110
REMARK   44  A    between atoms: _110  and  _111
REMARK   45  A    between atoms: _110  and  _113
REMARK   46  A    between atoms: _113  and  _114
REMARK   47  A    between atoms: _114  and  _115
REMARK   48  A    between atoms: _115  and  _116
REMARK   49  A    between atoms: _116  and  _117
REMARK   50  A    between atoms: _121  and  _123
REMARK   51  A    between atoms: _123  and  _124
REMARK   52  A    between atoms: _127  and  _129
REMARK   53  A    between atoms: _129  and  _130
REMARK   54  A    between atoms: _129  and  _132
REMARK   55  A    between atoms: _132  and  _133
REMARK   56  A    between atoms: _138  and  _139
REMARK   57  A    between atoms: _141  and  _143
REMARK   58  A    between atoms: _143  and  _144
REMARK   59  A    between atoms: _147  and  _149
REMARK   60  A    between atoms: _149  and  _150
REMARK   61  A    between atoms: _149  and  _152
REMARK   62  A    between atoms: _152  and  _153
REMARK   63  A    between atoms: _156  and  _158
REMARK   64  A    between atoms: _158  and  _159
REMARK   65  A    between atoms: _158  and  _161
REMARK   66  A    between atoms: _161  and  _162
REMARK   67  A    between atoms: _162  and  _163
REMARK   68  A    between atoms: _163  and  _164
REMARK   69  A    between atoms: _164  and  _165
REMARK   70  A    between atoms: _169  and  _171
REMARK   71  A    between atoms: _171  and  _172
REMARK   72  A    between atoms: _171  and  _174
REMARK   73  A    between atoms: _174  and  _175
REMARK   74  A    between atoms: _175  and  _176
REMARK   75  A    between atoms: _181  and  _183
REMARK   76  A    between atoms: _183  and  _184
REMARK   77  A    between atoms: _183  and  _186
REMARK   78  A    between atoms: _186  and  _187
REMARK   79  A    between atoms: _190  and  _192
REMARK   80  A    between atoms: _192  and  _193
REMARK   81  A    between atoms: _192  and  _195
REMARK   82  A    between atoms: _195  and  _196
REMARK   83  A    between atoms: _198  and  _200
REMARK   84  A    between atoms: _200  and  _201
REMARK   85  A    between atoms: _200  and  _203
REMARK   86  A    between atoms: _203  and  _204
REMARK   87  A    between atoms: _204  and  _205
REMARK   88  A    between atoms: _207  and  _209
REMARK   89  A    between atoms: _209  and  _210
REMARK   90  A    between atoms: _209  and  _212
REMARK   91  A    between atoms: _212  and  _213
REMARK   92  A    between atoms: _215  and  _217
REMARK   93  A    between atoms: _217  and  _218
REMARK   94  A    between atoms: _221  and  _223
REMARK   95  A    between atoms: _223  and  _224
REMARK   96  A    between atoms: _223  and  _226
REMARK   97  A    between atoms: _228  and  _230
REMARK   98  A    between atoms: _230  and  _231
REMARK   99  A    between atoms: _230  and  _233
REMARK  100  A    between atoms: _233  and  _234
REMARK  101  A    between atoms: _234  and  _235
REMARK  102  A    between atoms: _235  and  _236
REMARK  103  A    between atoms: _245  and  _247
REMARK  104  A    between atoms: _247  and  _248
REMARK  105  A    between atoms: _247  and  _250
REMARK  106  A    between atoms: _250  and  _251
REMARK  107  A    between atoms: _251  and  _252
REMARK  108  A    between atoms: _255  and  _257
REMARK  109  A    between atoms: _257  and  _258
REMARK  110  A    between atoms: _257  and  _260
REMARK  111  A    between atoms: _260  and  _261
REMARK  112  A    between atoms: _264  and  _266
REMARK  113  A    between atoms: _266  and  _267
REMARK  114  A    between atoms: _270  and  _272
REMARK  115  A    between atoms: _272  and  _273
REMARK  116  A    between atoms: _272  and  _275
REMARK  117  A    between atoms: _275  and  _276
REMARK  118  A    between atoms: _279  and  _281
REMARK  119  A    between atoms: _281  and  _282
REMARK  120  A    between atoms: _281  and  _284
REMARK  121  A    between atoms: _284  and  _285
REMARK  122  A    between atoms: _288  and  _290
REMARK  123  A    between atoms: _290  and  _291
REMARK  124  A    between atoms: _290  and  _293
REMARK  125  A    between atoms: _293  and  _294
REMARK  126  A    between atoms: _297  and  _299
REMARK  127  A    between atoms: _299  and  _300
REMARK  128  A    between atoms: _299  and  _302
REMARK  129  A    between atoms: _302  and  _303
REMARK  130  A    between atoms: _308  and  _310
REMARK  131  A    between atoms: _310  and  _311
REMARK  132  A    between atoms: _310  and  _313
REMARK  133  A    between atoms: _316  and  _318
REMARK  134  A    between atoms: _318  and  _319
REMARK  135  A    between atoms: _318  and  _321
REMARK  136  A    between atoms: _321  and  _322
REMARK  137  A    between atoms: _325  and  _327
REMARK  138  A    between atoms: _327  and  _328
REMARK  139  A    between atoms: _327  and  _330
REMARK  140  A    between atoms: _330  and  _331
REMARK  141  A    between atoms: _333  and  _335
REMARK  142  A    between atoms: _335  and  _336
REMARK  143  A    between atoms: _335  and  _338
REMARK  144  A    between atoms: _338  and  _339
REMARK  145  A    between atoms: _342  and  _344
REMARK  146  A    between atoms: _344  and  _345
REMARK  147  A    between atoms: _344  and  _347
REMARK  148  A    between atoms: _347  and  _348
REMARK  149  A    between atoms: _351  and  _353
REMARK  150  A    between atoms: _353  and  _354
REMARK  151  A    between atoms: _353  and  _356
REMARK  152  A    between atoms: _356  and  _357
REMARK  153  A    between atoms: _360  and  _362
REMARK  154  A    between atoms: _362  and  _363
REMARK  155  A    between atoms: _362  and  _365
REMARK  156  A    between atoms: _365  and  _366
REMARK  157  A    between atoms: _372  and  _374
REMARK  158  A    between atoms: _374  and  _375
REMARK  159  A    between atoms: _374  and  _377
REMARK  160  A    between atoms: _377  and  _378
REMARK  161  A    between atoms: _381  and  _383
REMARK  162  A    between atoms: _383  and  _384
REMARK  163  A    between atoms: _383  and  _386
REMARK  164  A    between atoms: _386  and  _387
REMARK  165  A    between atoms: _392  and  _393
REMARK  166  A    between atoms: _395  and  _397
REMARK  167  A    between atoms: _397  and  _398
REMARK  168  A    between atoms: _401  and  _403
REMARK  169  A    between atoms: _403  and  _404
REMARK  170  A    between atoms: _403  and  _406
REMARK  171  A    between atoms: _406  and  _407
REMARK  172  A    between atoms: _407  and  _408
REMARK  173  A    between atoms: _411  and  _413
REMARK  174  A    between atoms: _413  and  _414
REMARK  175  A    between atoms: _413  and  _416
REMARK  176  A    between atoms: _416  and  _417
REMARK  177  A    between atoms: _422  and  _424
REMARK  178  A    between atoms: _424  and  _425
REMARK  179  A    between atoms: _424  and  _427
REMARK  180  A    between atoms: _427  and  _428
REMARK  181  A    between atoms: _431  and  _433
REMARK  182  A    between atoms: _433  and  _434
REMARK  183  A    between atoms: _433  and  _436
REMARK  184  A    between atoms: _436  and  _437
REMARK  185  A    between atoms: _440  and  _442
REMARK  186  A    between atoms: _442  and  _443
REMARK  187  A    between atoms: _442  and  _445
REMARK  188  A    between atoms: _445  and  _446
REMARK  189  A    between atoms: _456  and  _458
REMARK  190  A    between atoms: _458  and  _459
REMARK  191  A    between atoms: _458  and  _461
REMARK  192  A    between atoms: _461  and  _462
REMARK  193  A    between atoms: _467  and  _469
REMARK  194  A    between atoms: _469  and  _470
REMARK  195  A    between atoms: _469  and  _472
REMARK  196  A    between atoms: _472  and  _473
REMARK  197  A    between atoms: _476  and  _478
REMARK  198  A    between atoms: _478  and  _479
REMARK  199  A    between atoms: _478  and  _481
REMARK  200  A    between atoms: _481  and  _482
REMARK  201  A    between atoms: _482  and  _483
REMARK  202  A    between atoms: _483  and  _484
REMARK  203  A    between atoms: _484  and  _485
REMARK  204  A    between atoms: _489  and  _491
REMARK  205  A    between atoms: _491  and  _492
REMARK  206  A    between atoms: _494  and  _496
REMARK  207  A    between atoms: _496  and  _497
REMARK  208  A    between atoms: _496  and  _499
REMARK  209  A    between atoms: _499  and  _500
REMARK  210  A    between atoms: _503  and  _505
REMARK  211  A    between atoms: _505  and  _506
REMARK  212  A    between atoms: _505  and  _508
REMARK  213  A    between atoms: _508  and  _509
REMARK  214  A    between atoms: _514  and  _515
REMARK  215  A    between atoms: _517  and  _519
REMARK  216  A    between atoms: _519  and  _520
REMARK  217  A    between atoms: _519  and  _522
REMARK  218  A    between atoms: _522  and  _523
REMARK  219  A    between atoms: _526  and  _528
REMARK  220  A    between atoms: _528  and  _529
REMARK  221  A    between atoms: _528  and  _531
REMARK  222  A    between atoms: _534  and  _536
REMARK  223  A    between atoms: _536  and  _537
REMARK  224  A    between atoms: _536  and  _539
REMARK  225  A    between atoms: _539  and  _540
REMARK  226  A    between atoms: _543  and  _545
REMARK  227  A    between atoms: _545  and  _546
REMARK  228  A    between atoms: _545  and  _548
REMARK  229  A    between atoms: _548  and  _549
REMARK  230  A    between atoms: _554  and  _556
REMARK  231  A    between atoms: _556  and  _557
REMARK  232  A    between atoms: _556  and  _559
REMARK  233  A    between atoms: _559  and  _560
REMARK  234  A    between atoms: _560  and  _561
REMARK  235  A    between atoms: _561  and  _562
REMARK  236  A    between atoms: _571  and  _573
REMARK  237  A    between atoms: _573  and  _574
REMARK  238  A    between atoms: _573  and  _576
REMARK  239  A    between atoms: _576  and  _577
REMARK  240  A    between atoms: _580  and  _582
REMARK  241  A    between atoms: _582  and  _583
REMARK  242  A    between atoms: _582  and  _585
REMARK  243  A    between atoms: _585  and  _586
REMARK  244  A    between atoms: _589  and  _591
REMARK  245  A    between atoms: _591  and  _592
REMARK  246  A    between atoms: _591  and  _594
REMARK  247  A    between atoms: _594  and  _595
REMARK  248  A    between atoms: _595  and  _596
REMARK  249  A    between atoms: _596  and  _597
REMARK  250  A    between atoms: _597  and  _598
REMARK  251  A    between atoms: _603  and  _604
REMARK  252  A    between atoms: _609  and  _611
REMARK  253  A    between atoms: _611  and  _612
REMARK  254  A    between atoms: _615  and  _617
REMARK  255  A    between atoms: _617  and  _618
REMARK  256  A    between atoms: _617  and  _620
REMARK  257  A    between atoms: _620  and  _621
REMARK  258  A    between atoms: _626  and  _628
REMARK  259  A    between atoms: _628  and  _629
REMARK  260  A    between atoms: _628  and  _631
REMARK  261  A    between atoms: _631  and  _632
REMARK  262  A    between atoms: _635  and  _637
REMARK  263  A    between atoms: _637  and  _638
REMARK  264  A    between atoms: _637  and  _640
REMARK  265  A    between atoms: _640  and  _641
REMARK  266  A    between atoms: _644  and  _646
REMARK  267  A    between atoms: _646  and  _647
REMARK  268  A    between atoms: _646  and  _649
REMARK  269  A    between atoms: _652  and  _654
REMARK  270  A    between atoms: _654  and  _655
REMARK  271  A    between atoms: _654  and  _657
REMARK  272  A    between atoms: _657  and  _658
REMARK  273  A    between atoms: _658  and  _659
REMARK  274  A    between atoms: _659  and  _660
REMARK  275  A    between atoms: _660  and  _661
REMARK  276  A    between atoms: _665  and  _667
REMARK  277  A    between atoms: _667  and  _668
REMARK  278  A    between atoms: _667  and  _670
REMARK  279  A    between atoms: _670  and  _671
REMARK  280  A    between atoms: _674  and  _676
REMARK  281  A    between atoms: _676  and  _677
REMARK  282  A    between atoms: _680  and  _682
REMARK  283  A    between atoms: _682  and  _683
REMARK  284  A    between atoms: _682  and  _685
REMARK  285  A    between atoms: _685  and  _686
REMARK  286  A    between atoms: _689  and  _691
REMARK  287  A    between atoms: _691  and  _692
REMARK  288  A    between atoms: _691  and  _694
REMARK  289  A    between atoms: _694  and  _695
REMARK  290  A    between atoms: _695  and  _696
REMARK  291  A    between atoms: _698  and  _700
REMARK  292  A    between atoms: _700  and  _701
REMARK  293  A    between atoms: _703  and  _705
REMARK  294  A    between atoms: _705  and  _706
REMARK  295  A    between atoms: _705  and  _708
REMARK  296  A    between atoms: _708  and  _709
REMARK  297  A    between atoms: _715  and  _717
REMARK  298  A    between atoms: _717  and  _718
REMARK  299  A    between atoms: _721  and  _723
REMARK  300  A    between atoms: _723  and  _724
REMARK  301  A    between atoms: _723  and  _726
REMARK  302  A    between atoms: _726  and  _727
REMARK  303  A    between atoms: _727  and  _728
REMARK  304  A    between atoms: _728  and  _729
REMARK  305  A    between atoms: _738  and  _740
REMARK  306  A    between atoms: _740  and  _741
REMARK  307  A    between atoms: _740  and  _743
REMARK  308  A    between atoms: _743  and  _744
REMARK  309  A    between atoms: _744  and  _745
REMARK                            x       y       z     vdW  Elec       q    Type
REMARK                         _______ _______ _______ _____ _____    ______ ____
ROOT
ATOM      1  O   HOH     1      40.921  46.643 137.775  0.00  0.00    +0.000 OA
ENDROOT
TORSDOF 0
REMARK  Name = ../refined-set-2016/4f6w/4f6w_pocket.pdb
REMARK  309 active torsions:
REMARK  status: ('A' for Active; 'I' for Inactive)
REMARK    1  A    between atoms: _1  and  _3
REMARK    2  A    between atoms: _3  and  _4
REMARK    3  A    between atoms: _3  and  _6
REMARK    4  A    between atoms: _8  and  _10
REMARK    5  A    between atoms: _10  and  _11
REMARK    6  A    between atoms: _10  and  _13
REMARK    7  A    between atoms: _13  and  _14
REMARK    8  A    between atoms: _14  and  _15
REMARK    9  A    between atoms: _15  and  _16
REMARK   10  A    between atoms: _16  and  _17
REMARK   11  A    between atoms: _21  and  _23
REMARK   12  A    between atoms: _23  and  _24
REMARK   13  A    between atoms: _23  and  _26
REMARK   14  A    between atoms: _29  and  _31
REMARK   15  A    between atoms: _31  and  _32
REMARK   16  A    between atoms: _34  and  _36
REMARK   17  A    between atoms: _36  and  _37
REMARK   18  A    between atoms: _36  and  _39
REMARK   19  A    between atoms: _39  and  _40
REMARK   20  A    between atoms: _40  and  _41
REMARK   21  A    between atoms: _41  and  _42
REMARK   22  A    between atoms: _51  and  _53
REMARK   23  A    between atoms: _53  and  _54
REMARK   24  A    between atoms: _56  and  _58
REMARK   25  A    between atoms: _58  and  _59
REMARK   26  A    between atoms: _58  and  _61
REMARK   27  A    between atoms: _61  and  _62
REMARK   28  A    between atoms: _67  and  _68
REMARK   29  A    between atoms: _70  and  _72
REMARK   30  A    between atoms: _72  and  _73
REMARK   31  A    between atoms: _75  and  _77
REMARK   32  A    between atoms: _77  and  _78
REMARK   33  A    between atoms: _77  and  _80
REMARK   34  A    between atoms: _80  and  _81
REMARK   35  A    between atoms: _86  and  _88
REMARK   36  A    between atoms: _88  and  _89
REMARK   37  A    between atoms: _88  and  _91
REMARK   38  A    between atoms: _94  and  _96
REMARK   39  A    between atoms: _96  and  _97
REMARK   40  A    between atoms: _96  and  _99
REMARK   41  A    between atoms: _99  and  _100
REMARK   42  A    between atoms: _105  and  _106
REMARK   43  A    between atoms: _108  and  _110
REMARK   44  A    between atoms: _110  and  _111
REMARK   45  A    between atoms: _110  and  _113
REMARK   46  A    between atoms: _113  and  _114
REMARK   47  A    between atoms: _114  and  _115
REMARK   48  A    between atoms: _115  and  _116
REMARK   49  A    between atoms: _116  and  _117
REMARK   50  A    between atoms: _121  and  _123
REMARK   51  A    between atoms: _123  and  _124
REMARK   52  A    between atoms: _127  and  _129
REMARK   53  A    between atoms: _129  and  _130
REMARK   54  A    between atoms: _129  and  _132
REMARK   55  A    between atoms: _132  and  _133
REMARK   56  A    between atoms: _138  and  _139
REMARK   57  A    between atoms: _141  and  _143
REMARK   58  A    between atoms: _143  and  _144
REMARK   59  A    between atoms: _147  and  _149
REMARK   60  A    between atoms: _149  and  _150
REMARK   61  A    between atoms: _149  and  _152
REMARK   62  A    between atoms: _152  and  _153
REMARK   63  A    between atoms: _156  and  _158
REMARK   64  A    between atoms: _158  and  _159
REMARK   65  A    between atoms: _158  and  _161
REMARK   66  A    between atoms: _161  and  _162
REMARK   67  A    between atoms: _162  and  _163
REMARK   68  A    between atoms: _163  and  _164
REMARK   69  A    between atoms: _164  and  _165
REMARK   70  A    between atoms: _169  and  _171
REMARK   71  A    between atoms: _171  and  _172
REMARK   72  A    between atoms: _171  and  _174
REMARK   73  A    between atoms: _174  and  _175
REMARK   74  A    between atoms: _175  and  _176
REMARK   75  A    between atoms: _181  and  _183
REMARK   76  A    between atoms: _183  and  _184
REMARK   77  A    between atoms: _183  and  _186
REMARK   78  A    between atoms: _186  and  _187
REMARK   79  A    between atoms: _190  and  _192
REMARK   80  A    between atoms: _192  and  _193
REMARK   81  A    between atoms: _192  and  _195
REMARK   82  A    between atoms: _195  and  _196
REMARK   83  A    between atoms: _198  and  _200
REMARK   84  A    between atoms: _200  and  _201
REMARK   85  A    between atoms: _200  and  _203
REMARK   86  A    between atoms: _203  and  _204
REMARK   87  A    between atoms: _204  and  _205
REMARK   88  A    between atoms: _207  and  _209
REMARK   89  A    between atoms: _209  and  _210
REMARK   90  A    between atoms: _209  and  _212
REMARK   91  A    between atoms: _212  and  _213
REMARK   92  A    between atoms: _215  and  _217
REMARK   93  A    between atoms: _217  and  _218
REMARK   94  A    between atoms: _221  and  _223
REMARK   95  A    between atoms: _223  and  _224
REMARK   96  A    between atoms: _223  and  _226
REMARK   97  A    between atoms: _228  and  _230
REMARK   98  A    between atoms: _230  and  _231
REMARK   99  A    between atoms: _230  and  _233
REMARK  100  A    between atoms: _233  and  _234
REMARK  101  A    between atoms: _234  and  _235
REMARK  102  A    between atoms: _235  and  _236
REMARK  103  A    between atoms: _245  and  _247
REMARK  104  A    between atoms: _247  and  _248
REMARK  105  A    between atoms: _247  and  _250
REMARK  106  A    between atoms: _250  and  _251
REMARK  107  A    between atoms: _251  and  _252
REMARK  108  A    between atoms: _255  and  _257
REMARK  109  A    between atoms: _257  and  _258
REMARK  110  A    between atoms: _257  and  _260
REMARK  111  A    between atoms: _260  and  _261
REMARK  112  A    between atoms: _264  and  _266
REMARK  113  A    between atoms: _266  and  _267
REMARK  114  A    between atoms: _270  and  _272
REMARK  115  A    between atoms: _272  and  _273
REMARK  116  A    between atoms: _272  and  _275
REMARK  117  A    between atoms: _275  and  _276
REMARK  118  A    between atoms: _279  and  _281
REMARK  119  A    between atoms: _281  and  _282
REMARK  120  A    between atoms: _281  and  _284
REMARK  121  A    between atoms: _284  and  _285
REMARK  122  A    between atoms: _288  and  _290
REMARK  123  A    between atoms: _290  and  _291
REMARK  124  A    between atoms: _290  and  _293
REMARK  125  A    between atoms: _293  and  _294
REMARK  126  A    between atoms: _297  and  _299
REMARK  127  A    between atoms: _299  and  _300
REMARK  128  A    between atoms: _299  and  _302
REMARK  129  A    between atoms: _302  and  _303
REMARK  130  A    between atoms: _308  and  _310
REMARK  131  A    between atoms: _310  and  _311
REMARK  132  A    between atoms: _310  and  _313
REMARK  133  A    between atoms: _316  and  _318
REMARK  134  A    between atoms: _318  and  _319
REMARK  135  A    between atoms: _318  and  _321
REMARK  136  A    between atoms: _321  and  _322
REMARK  137  A    between atoms: _325  and  _327
REMARK  138  A    between atoms: _327  and  _328
REMARK  139  A    between atoms: _327  and  _330
REMARK  140  A    between atoms: _330  and  _331
REMARK  141  A    between atoms: _333  and  _335
REMARK  142  A    between atoms: _335  and  _336
REMARK  143  A    between atoms: _335  and  _338
REMARK  144  A    between atoms: _338  and  _339
REMARK  145  A    between atoms: _342  and  _344
REMARK  146  A    between atoms: _344  and  _345
REMARK  147  A    between atoms: _344  and  _347
REMARK  148  A    between atoms: _347  and  _348
REMARK  149  A    between atoms: _351  and  _353
REMARK  150  A    between atoms: _353  and  _354
REMARK  151  A    between atoms: _353  and  _356
REMARK  152  A    between atoms: _356  and  _357
REMARK  153  A    between atoms: _360  and  _362
REMARK  154  A    between atoms: _362  and  _363
REMARK  155  A    between atoms: _362  and  _365
REMARK  156  A    between atoms: _365  and  _366
REMARK  157  A    between atoms: _372  and  _374
REMARK  158  A    between atoms: _374  and  _375
REMARK  159  A    between atoms: _374  and  _377
REMARK  160  A    between atoms: _377  and  _378
REMARK  161  A    between atoms: _381  and  _383
REMARK  162  A    between atoms: _383  and  _384
REMARK  163  A    between atoms: _383  and  _386
REMARK  164  A    between atoms: _386  and  _387
REMARK  165  A    between atoms: _392  and  _393
REMARK  166  A    between atoms: _395  and  _397
REMARK  167  A    between atoms: _397  and  _398
REMARK  168  A    between atoms: _401  and  _403
REMARK  169  A    between atoms: _403  and  _404
REMARK  170  A    between atoms: _403  and  _406
REMARK  171  A    between atoms: _406  and  _407
REMARK  172  A    between atoms: _407  and  _408
REMARK  173  A    between atoms: _411  and  _413
REMARK  174  A    between atoms: _413  and  _414
REMARK  175  A    between atoms: _413  and  _416
REMARK  176  A    between atoms: _416  and  _417
REMARK  177  A    between atoms: _422  and  _424
REMARK  178  A    between atoms: _424  and  _425
REMARK  179  A    between atoms: _424  and  _427
REMARK  180  A    between atoms: _427  and  _428
REMARK  181  A    between atoms: _431  and  _433
REMARK  182  A    between atoms: _433  and  _434
REMARK  183  A    between atoms: _433  and  _436
REMARK  184  A    between atoms: _436  and  _437
REMARK  185  A    between atoms: _440  and  _442
REMARK  186  A    between atoms: _442  and  _443
REMARK  187  A    between atoms: _442  and  _445
REMARK  188  A    between atoms: _445  and  _446
REMARK  189  A    between atoms: _456  and  _458
REMARK  190  A    between atoms: _458  and  _459
REMARK  191  A    between atoms: _458  and  _461
REMARK  192  A    between atoms: _461  and  _462
REMARK  193  A    between atoms: _467  and  _469
REMARK  194  A    between atoms: _469  and  _470
REMARK  195  A    between atoms: _469  and  _472
REMARK  196  A    between atoms: _472  and  _473
REMARK  197  A    between atoms: _476  and  _478
REMARK  198  A    between atoms: _478  and  _479
REMARK  199  A    between atoms: _478  and  _481
REMARK  200  A    between atoms: _481  and  _482
REMARK  201  A    between atoms: _482  and  _483
REMARK  202  A    between atoms: _483  and  _484
REMARK  203  A    between atoms: _484  and  _485
REMARK  204  A    between atoms: _489  and  _491
REMARK  205  A    between atoms: _491  and  _492
REMARK  206  A    between atoms: _494  and  _496
REMARK  207  A    between atoms: _496  and  _497
REMARK  208  A    between atoms: _496  and  _499
REMARK  209  A    between atoms: _499  and  _500
REMARK  210  A    between atoms: _503  and  _505
REMARK  211  A    between atoms: _505  and  _506
REMARK  212  A    between atoms: _505  and  _508
REMARK  213  A    between atoms: _508  and  _509
REMARK  214  A    between atoms: _514  and  _515
REMARK  215  A    between atoms: _517  and  _519
REMARK  216  A    between atoms: _519  and  _520
REMARK  217  A    between atoms: _519  and  _522
REMARK  218  A    between atoms: _522  and  _523
REMARK  219  A    between atoms: _526  and  _528
REMARK  220  A    between atoms: _528  and  _529
REMARK  221  A    between atoms: _528  and  _531
REMARK  222  A    between atoms: _534  and  _536
REMARK  223  A    between atoms: _536  and  _537
REMARK  224  A    between atoms: _536  and  _539
REMARK  225  A    between atoms: _539  and  _540
REMARK  226  A    between atoms: _543  and  _545
REMARK  227  A    between atoms: _545  and  _546
REMARK  228  A    between atoms: _545  and  _548
REMARK  229  A    between atoms: _548  and  _549
REMARK  230  A    between atoms: _554  and  _556
REMARK  231  A    between atoms: _556  and  _557
REMARK  232  A    between atoms: _556  and  _559
REMARK  233  A    between atoms: _559  and  _560
REMARK  234  A    between atoms: _560  and  _561
REMARK  235  A    between atoms: _561  and  _562
REMARK  236  A    between atoms: _571  and  _573
REMARK  237  A    between atoms: _573  and  _574
REMARK  238  A    between atoms: _573  and  _576
REMARK  239  A    between atoms: _576  and  _577
REMARK  240  A    between atoms: _580  and  _582
REMARK  241  A    between atoms: _582  and  _583
REMARK  242  A    between atoms: _582  and  _585
REMARK  243  A    between atoms: _585  and  _586
REMARK  244  A    between atoms: _589  and  _591
REMARK  245  A    between atoms: _591  and  _592
REMARK  246  A    between atoms: _591  and  _594
REMARK  247  A    between atoms: _594  and  _595
REMARK  248  A    between atoms: _595  and  _596
REMARK  249  A    between atoms: _596  and  _597
REMARK  250  A    between atoms: _597  and  _598
REMARK  251  A    between atoms: _603  and  _604
REMARK  252  A    between atoms: _609  and  _611
REMARK  253  A    between atoms: _611  and  _612
REMARK  254  A    between atoms: _615  and  _617
REMARK  255  A    between atoms: _617  and  _618
REMARK  256  A    between atoms: _617  and  _620
REMARK  257  A    between atoms: _620  and  _621
REMARK  258  A    between atoms: _626  and  _628
REMARK  259  A    between atoms: _628  and  _629
REMARK  260  A    between atoms: _628  and  _631
REMARK  261  A    between atoms: _631  and  _632
REMARK  262  A    between atoms: _635  and  _637
REMARK  263  A    between atoms: _637  and  _638
REMARK  264  A    between atoms: _637  and  _640
REMARK  265  A    between atoms: _640  and  _641
REMARK  266  A    between atoms: _644  and  _646
REMARK  267  A    between atoms: _646  and  _647
REMARK  268  A    between atoms: _646  and  _649
REMARK  269  A    between atoms: _652  and  _654
REMARK  270  A    between atoms: _654  and  _655
REMARK  271  A    between atoms: _654  and  _657
REMARK  272  A    between atoms: _657  and  _658
REMARK  273  A    between atoms: _658  and  _659
REMARK  274  A    between atoms: _659  and  _660
REMARK  275  A    between atoms: _660  and  _661
REMARK  276  A    between atoms: _665  and  _667
REMARK  277  A    between atoms: _667  and  _668
REMARK  278  A    between atoms: _667  and  _670
REMARK  279  A    between atoms: _670  and  _671
REMARK  280  A    between atoms: _674  and  _676
REMARK  281  A    between atoms: _676  and  _677
REMARK  282  A    between atoms: _680  and  _682
REMARK  283  A    between atoms: _682  and  _683
REMARK  284  A    between atoms: _682  and  _685
REMARK  285  A    between atoms: _685  and  _686
REMARK  286  A    between atoms: _689  and  _691
REMARK  287  A    between atoms: _691  and  _692
REMARK  288  A    between atoms: _691  and  _694
REMARK  289  A    between atoms: _694  and  _695
REMARK  290  A    between atoms: _695  and  _696
REMARK  291  A    between atoms: _698  and  _700
REMARK  292  A    between atoms: _700  and  _701
REMARK  293  A    between atoms: _703  and  _705
REMARK  294  A    between atoms: _705  and  _706
REMARK  295  A    between atoms: _705  and  _708
REMARK  296  A    between atoms: _708  and  _709
REMARK  297  A    between atoms: _715  and  _717
REMARK  298  A    between atoms: _717  and  _718
REMARK  299  A    between atoms: _721  and  _723
REMARK  300  A    between atoms: _723  and  _724
REMARK  301  A    between atoms: _723  and  _726
REMARK  302  A    between atoms: _726  and  _727
REMARK  303  A    between atoms: _727  and  _728
REMARK  304  A    between atoms: _728  and  _729
REMARK  305  A    between atoms: _738  and  _740
REMARK  306  A    between atoms: _740  and  _741
REMARK  307  A    between atoms: _740  and  _743
REMARK  308  A    between atoms: _743  and  _744
REMARK  309  A    between atoms: _744  and  _745
REMARK                            x       y       z     vdW  Elec       q    Type
REMARK                         _______ _______ _______ _____ _____    ______ ____
ROOT
ATOM      1  O   HOH     1      35.970  50.205 148.681  0.00  0.00    +0.000 OA
ENDROOT
TORSDOF 0
REMARK  Name = ../refined-set-2016/4f6w/4f6w_pocket.pdb
REMARK  309 active torsions:
REMARK  status: ('A' for Active; 'I' for Inactive)
REMARK    1  A    between atoms: _1  and  _3
REMARK    2  A    between atoms: _3  and  _4
REMARK    3  A    between atoms: _3  and  _6
REMARK    4  A    between atoms: _8  and  _10
REMARK    5  A    between atoms: _10  and  _11
REMARK    6  A    between atoms: _10  and  _13
REMARK    7  A    between atoms: _13  and  _14
REMARK    8  A    between atoms: _14  and  _15
REMARK    9  A    between atoms: _15  and  _16
REMARK   10  A    between atoms: _16  and  _17
REMARK   11  A    between atoms: _21  and  _23
REMARK   12  A    between atoms: _23  and  _24
REMARK   13  A    between atoms: _23  and  _26
REMARK   14  A    between atoms: _29  and  _31
REMARK   15  A    between atoms: _31  and  _32
REMARK   16  A    between atoms: _34  and  _36
REMARK   17  A    between atoms: _36  and  _37
REMARK   18  A    between atoms: _36  and  _39
REMARK   19  A    between atoms: _39  and  _40
REMARK   20  A    between atoms: _40  and  _41
REMARK   21  A    between atoms: _41  and  _42
REMARK   22  A    between atoms: _51  and  _53
REMARK   23  A    between atoms: _53  and  _54
REMARK   24  A    between atoms: _56  and  _58
REMARK   25  A    between atoms: _58  and  _59
REMARK   26  A    between atoms: _58  and  _61
REMARK   27  A    between atoms: _61  and  _62
REMARK   28  A    between atoms: _67  and  _68
REMARK   29  A    between atoms: _70  and  _72
REMARK   30  A    between atoms: _72  and  _73
REMARK   31  A    between atoms: _75  and  _77
REMARK   32  A    between atoms: _77  and  _78
REMARK   33  A    between atoms: _77  and  _80
REMARK   34  A    between atoms: _80  and  _81
REMARK   35  A    between atoms: _86  and  _88
REMARK   36  A    between atoms: _88  and  _89
REMARK   37  A    between atoms: _88  and  _91
REMARK   38  A    between atoms: _94  and  _96
REMARK   39  A    between atoms: _96  and  _97
REMARK   40  A    between atoms: _96  and  _99
REMARK   41  A    between atoms: _99  and  _100
REMARK   42  A    between atoms: _105  and  _106
REMARK   43  A    between atoms: _108  and  _110
REMARK   44  A    between atoms: _110  and  _111
REMARK   45  A    between atoms: _110  and  _113
REMARK   46  A    between atoms: _113  and  _114
REMARK   47  A    between atoms: _114  and  _115
REMARK   48  A    between atoms: _115  and  _116
REMARK   49  A    between atoms: _116  and  _117
REMARK   50  A    between atoms: _121  and  _123
REMARK   51  A    between atoms: _123  and  _124
REMARK   52  A    between atoms: _127  and  _129
REMARK   53  A    between atoms: _129  and  _130
REMARK   54  A    between atoms: _129  and  _132
REMARK   55  A    between atoms: _132  and  _133
REMARK   56  A    between atoms: _138  and  _139
REMARK   57  A    between atoms: _141  and  _143
REMARK   58  A    between atoms: _143  and  _144
REMARK   59  A    between atoms: _147  and  _149
REMARK   60  A    between atoms: _149  and  _150
REMARK   61  A    between atoms: _149  and  _152
REMARK   62  A    between atoms: _152  and  _153
REMARK   63  A    between atoms: _156  and  _158
REMARK   64  A    between atoms: _158  and  _159
REMARK   65  A    between atoms: _158  and  _161
REMARK   66  A    between atoms: _161  and  _162
REMARK   67  A    between atoms: _162  and  _163
REMARK   68  A    between atoms: _163  and  _164
REMARK   69  A    between atoms: _164  and  _165
REMARK   70  A    between atoms: _169  and  _171
REMARK   71  A    between atoms: _171  and  _172
REMARK   72  A    between atoms: _171  and  _174
REMARK   73  A    between atoms: _174  and  _175
REMARK   74  A    between atoms: _175  and  _176
REMARK   75  A    between atoms: _181  and  _183
REMARK   76  A    between atoms: _183  and  _184
REMARK   77  A    between atoms: _183  and  _186
REMARK   78  A    between atoms: _186  and  _187
REMARK   79  A    between atoms: _190  and  _192
REMARK   80  A    between atoms: _192  and  _193
REMARK   81  A    between atoms: _192  and  _195
REMARK   82  A    between atoms: _195  and  _196
REMARK   83  A    between atoms: _198  and  _200
REMARK   84  A    between atoms: _200  and  _201
REMARK   85  A    between atoms: _200  and  _203
REMARK   86  A    between atoms: _203  and  _204
REMARK   87  A    between atoms: _204  and  _205
REMARK   88  A    between atoms: _207  and  _209
REMARK   89  A    between atoms: _209  and  _210
REMARK   90  A    between atoms: _209  and  _212
REMARK   91  A    between atoms: _212  and  _213
REMARK   92  A    between atoms: _215  and  _217
REMARK   93  A    between atoms: _217  and  _218
REMARK   94  A    between atoms: _221  and  _223
REMARK   95  A    between atoms: _223  and  _224
REMARK   96  A    between atoms: _223  and  _226
REMARK   97  A    between atoms: _228  and  _230
REMARK   98  A    between atoms: _230  and  _231
REMARK   99  A    between atoms: _230  and  _233
REMARK  100  A    between atoms: _233  and  _234
REMARK  101  A    between atoms: _234  and  _235
REMARK  102  A    between atoms: _235  and  _236
REMARK  103  A    between atoms: _245  and  _247
REMARK  104  A    between atoms: _247  and  _248
REMARK  105  A    between atoms: _247  and  _250
REMARK  106  A    between atoms: _250  and  _251
REMARK  107  A    between atoms: _251  and  _252
REMARK  108  A    between atoms: _255  and  _257
REMARK  109  A    between atoms: _257  and  _258
REMARK  110  A    between atoms: _257  and  _260
REMARK  111  A    between atoms: _260  and  _261
REMARK  112  A    between atoms: _264  and  _266
REMARK  113  A    between atoms: _266  and  _267
REMARK  114  A    between atoms: _270  and  _272
REMARK  115  A    between atoms: _272  and  _273
REMARK  116  A    between atoms: _272  and  _275
REMARK  117  A    between atoms: _275  and  _276
REMARK  118  A    between atoms: _279  and  _281
REMARK  119  A    between atoms: _281  and  _282
REMARK  120  A    between atoms: _281  and  _284
REMARK  121  A    between atoms: _284  and  _285
REMARK  122  A    between atoms: _288  and  _290
REMARK  123  A    between atoms: _290  and  _291
REMARK  124  A    between atoms: _290  and  _293
REMARK  125  A    between atoms: _293  and  _294
REMARK  126  A    between atoms: _297  and  _299
REMARK  127  A    between atoms: _299  and  _300
REMARK  128  A    between atoms: _299  and  _302
REMARK  129  A    between atoms: _302  and  _303
REMARK  130  A    between atoms: _308  and  _310
REMARK  131  A    between atoms: _310  and  _311
REMARK  132  A    between atoms: _310  and  _313
REMARK  133  A    between atoms: _316  and  _318
REMARK  134  A    between atoms: _318  and  _319
REMARK  135  A    between atoms: _318  and  _321
REMARK  136  A    between atoms: _321  and  _322
REMARK  137  A    between atoms: _325  and  _327
REMARK  138  A    between atoms: _327  and  _328
REMARK  139  A    between atoms: _327  and  _330
REMARK  140  A    between atoms: _330  and  _331
REMARK  141  A    between atoms: _333  and  _335
REMARK  142  A    between atoms: _335  and  _336
REMARK  143  A    between atoms: _335  and  _338
REMARK  144  A    between atoms: _338  and  _339
REMARK  145  A    between atoms: _342  and  _344
REMARK  146  A    between atoms: _344  and  _345
REMARK  147  A    between atoms: _344  and  _347
REMARK  148  A    between atoms: _347  and  _348
REMARK  149  A    between atoms: _351  and  _353
REMARK  150  A    between atoms: _353  and  _354
REMARK  151  A    between atoms: _353  and  _356
REMARK  152  A    between atoms: _356  and  _357
REMARK  153  A    between atoms: _360  and  _362
REMARK  154  A    between atoms: _362  and  _363
REMARK  155  A    between atoms: _362  and  _365
REMARK  156  A    between atoms: _365  and  _366
REMARK  157  A    between atoms: _372  and  _374
REMARK  158  A    between atoms: _374  and  _375
REMARK  159  A    between atoms: _374  and  _377
REMARK  160  A    between atoms: _377  and  _378
REMARK  161  A    between atoms: _381  and  _383
REMARK  162  A    between atoms: _383  and  _384
REMARK  163  A    between atoms: _383  and  _386
REMARK  164  A    between atoms: _386  and  _387
REMARK  165  A    between atoms: _392  and  _393
REMARK  166  A    between atoms: _395  and  _397
REMARK  167  A    between atoms: _397  and  _398
REMARK  168  A    between atoms: _401  and  _403
REMARK  169  A    between atoms: _403  and  _404
REMARK  170  A    between atoms: _403  and  _406
REMARK  171  A    between atoms: _406  and  _407
REMARK  172  A    between atoms: _407  and  _408
REMARK  173  A    between atoms: _411  and  _413
REMARK  174  A    between atoms: _413  and  _414
REMARK  175  A    between atoms: _413  and  _416
REMARK  176  A    between atoms: _416  and  _417
REMARK  177  A    between atoms: _422  and  _424
REMARK  178  A    between atoms: _424  and  _425
REMARK  179  A    between atoms: _424  and  _427
REMARK  180  A    between atoms: _427  and  _428
REMARK  181  A    between atoms: _431  and  _433
REMARK  182  A    between atoms: _433  and  _434
REMARK  183  A    between atoms: _433  and  _436
REMARK  184  A    between atoms: _436  and  _437
REMARK  185  A    between atoms: _440  and  _442
REMARK  186  A    between atoms: _442  and  _443
REMARK  187  A    between atoms: _442  and  _445
REMARK  188  A    between atoms: _445  and  _446
REMARK  189  A    between atoms: _456  and  _458
REMARK  190  A    between atoms: _458  and  _459
REMARK  191  A    between atoms: _458  and  _461
REMARK  192  A    between atoms: _461  and  _462
REMARK  193  A    between atoms: _467  and  _469
REMARK  194  A    between atoms: _469  and  _470
REMARK  195  A    between atoms: _469  and  _472
REMARK  196  A    between atoms: _472  and  _473
REMARK  197  A    between atoms: _476  and  _478
REMARK  198  A    between atoms: _478  and  _479
REMARK  199  A    between atoms: _478  and  _481
REMARK  200  A    between atoms: _481  and  _482
REMARK  201  A    between atoms: _482  and  _483
REMARK  202  A    between atoms: _483  and  _484
REMARK  203  A    between atoms: _484  and  _485
REMARK  204  A    between atoms: _489  and  _491
REMARK  205  A    between atoms: _491  and  _492
REMARK  206  A    between atoms: _494  and  _496
REMARK  207  A    between atoms: _496  and  _497
REMARK  208  A    between atoms: _496  and  _499
REMARK  209  A    between atoms: _499  and  _500
REMARK  210  A    between atoms: _503  and  _505
REMARK  211  A    between atoms: _505  and  _506
REMARK  212  A    between atoms: _505  and  _508
REMARK  213  A    between atoms: _508  and  _509
REMARK  214  A    between atoms: _514  and  _515
REMARK  215  A    between atoms: _517  and  _519
REMARK  216  A    between atoms: _519  and  _520
REMARK  217  A    between atoms: _519  and  _522
REMARK  218  A    between atoms: _522  and  _523
REMARK  219  A    between atoms: _526  and  _528
REMARK  220  A    between atoms: _528  and  _529
REMARK  221  A    between atoms: _528  and  _531
REMARK  222  A    between atoms: _534  and  _536
REMARK  223  A    between atoms: _536  and  _537
REMARK  224  A    between atoms: _536  and  _539
REMARK  225  A    between atoms: _539  and  _540
REMARK  226  A    between atoms: _543  and  _545
REMARK  227  A    between atoms: _545  and  _546
REMARK  228  A    between atoms: _545  and  _548
REMARK  229  A    between atoms: _548  and  _549
REMARK  230  A    between atoms: _554  and  _556
REMARK  231  A    between atoms: _556  and  _557
REMARK  232  A    between atoms: _556  and  _559
REMARK  233  A    between atoms: _559  and  _560
REMARK  234  A    between atoms: _560  and  _561
REMARK  235  A    between atoms: _561  and  _562
REMARK  236  A    between atoms: _571  and  _573
REMARK  237  A    between atoms: _573  and  _574
REMARK  238  A    between atoms: _573  and  _576
REMARK  239  A    between atoms: _576  and  _577
REMARK  240  A    between atoms: _580  and  _582
REMARK  241  A    between atoms: _582  and  _583
REMARK  242  A    between atoms: _582  and  _585
REMARK  243  A    between atoms: _585  and  _586
REMARK  244  A    between atoms: _589  and  _591
REMARK  245  A    between atoms: _591  and  _592
REMARK  246  A    between atoms: _591  and  _594
REMARK  247  A    between atoms: _594  and  _595
REMARK  248  A    between atoms: _595  and  _596
REMARK  249  A    between atoms: _596  and  _597
REMARK  250  A    between atoms: _597  and  _598
REMARK  251  A    between atoms: _603  and  _604
REMARK  252  A    between atoms: _609  and  _611
REMARK  253  A    between atoms: _611  and  _612
REMARK  254  A    between atoms: _615  and  _617
REMARK  255  A    between atoms: _617  and  _618
REMARK  256  A    between atoms: _617  and  _620
REMARK  257  A    between atoms: _620  and  _621
REMARK  258  A    between atoms: _626  and  _628
REMARK  259  A    between atoms: _628  and  _629
REMARK  260  A    between atoms: _628  and  _631
REMARK  261  A    between atoms: _631  and  _632
REMARK  262  A    between atoms: _635  and  _637
REMARK  263  A    between atoms: _637  and  _638
REMARK  264  A    between atoms: _637  and  _640
REMARK  265  A    between atoms: _640  and  _641
REMARK  266  A    between atoms: _644  and  _646
REMARK  267  A    between atoms: _646  and  _647
REMARK  268  A    between atoms: _646  and  _649
REMARK  269  A    between atoms: _652  and  _654
REMARK  270  A    between atoms: _654  and  _655
REMARK  271  A    between atoms: _654  and  _657
REMARK  272  A    between atoms: _657  and  _658
REMARK  273  A    between atoms: _658  and  _659
REMARK  274  A    between atoms: _659  and  _660
REMARK  275  A    between atoms: _660  and  _661
REMARK  276  A    between atoms: _665  and  _667
REMARK  277  A    between atoms: _667  and  _668
REMARK  278  A    between atoms: _667  and  _670
REMARK  279  A    between atoms: _670  and  _671
REMARK  280  A    between atoms: _674  and  _676
REMARK  281  A    between atoms: _676  and  _677
REMARK  282  A    between atoms: _680  and  _682
REMARK  283  A    between atoms: _682  and  _683
REMARK  284  A    between atoms: _682  and  _685
REMARK  285  A    between atoms: _685  and  _686
REMARK  286  A    between atoms: _689  and  _691
REMARK  287  A    between atoms: _691  and  _692
REMARK  288  A    between atoms: _691  and  _694
REMARK  289  A    between atoms: _694  and  _695
REMARK  290  A    between atoms: _695  and  _696
REMARK  291  A    between atoms: _698  and  _700
REMARK  292  A    between atoms: _700  and  _701
REMARK  293  A    between atoms: _703  and  _705
REMARK  294  A    between atoms: _705  and  _706
REMARK  295  A    between atoms: _705  and  _708
REMARK  296  A    between atoms: _708  and  _709
REMARK  297  A    between atoms: _715  and  _717
REMARK  298  A    between atoms: _717  and  _718
REMARK  299  A    between atoms: _721  and  _723
REMARK  300  A    between atoms: _723  and  _724
REMARK  301  A    between atoms: _723  and  _726
REMARK  302  A    between atoms: _726  and  _727
REMARK  303  A    between atoms: _727  and  _728
REMARK  304  A    between atoms: _728  and  _729
REMARK  305  A    between atoms: _738  and  _740
REMARK  306  A    between atoms: _740  and  _741
REMARK  307  A    between atoms: _740  and  _743
REMARK  308  A    between atoms: _743  and  _744
REMARK  309  A    between atoms: _744  and  _745
REMARK                            x       y       z     vdW  Elec       q    Type
REMARK                         _______ _______ _______ _____ _____    ______ ____
ROOT
ATOM      1  O   HOH     1      37.358  53.922 150.251  0.00  0.00    +0.000 OA
ENDROOT
TORSDOF 0
REMARK  Name = ../refined-set-2016/4f6w/4f6w_pocket.pdb
REMARK  309 active torsions:
REMARK  status: ('A' for Active; 'I' for Inactive)
REMARK    1  A    between atoms: _1  and  _3
REMARK    2  A    between atoms: _3  and  _4
REMARK    3  A    between atoms: _3  and  _6
REMARK    4  A    between atoms: _8  and  _10
REMARK    5  A    between atoms: _10  and  _11
REMARK    6  A    between atoms: _10  and  _13
REMARK    7  A    between atoms: _13  and  _14
REMARK    8  A    between atoms: _14  and  _15
REMARK    9  A    between atoms: _15  and  _16
REMARK   10  A    between atoms: _16  and  _17
REMARK   11  A    between atoms: _21  and  _23
REMARK   12  A    between atoms: _23  and  _24
REMARK   13  A    between atoms: _23  and  _26
REMARK   14  A    between atoms: _29  and  _31
REMARK   15  A    between atoms: _31  and  _32
REMARK   16  A    between atoms: _34  and  _36
REMARK   17  A    between atoms: _36  and  _37
REMARK   18  A    between atoms: _36  and  _39
REMARK   19  A    between atoms: _39  and  _40
REMARK   20  A    between atoms: _40  and  _41
REMARK   21  A    between atoms: _41  and  _42
REMARK   22  A    between atoms: _51  and  _53
REMARK   23  A    between atoms: _53  and  _54
REMARK   24  A    between atoms: _56  and  _58
REMARK   25  A    between atoms: _58  and  _59
REMARK   26  A    between atoms: _58  and  _61
REMARK   27  A    between atoms: _61  and  _62
REMARK   28  A    between atoms: _67  and  _68
REMARK   29  A    between atoms: _70  and  _72
REMARK   30  A    between atoms: _72  and  _73
REMARK   31  A    between atoms: _75  and  _77
REMARK   32  A    between atoms: _77  and  _78
REMARK   33  A    between atoms: _77  and  _80
REMARK   34  A    between atoms: _80  and  _81
REMARK   35  A    between atoms: _86  and  _88
REMARK   36  A    between atoms: _88  and  _89
REMARK   37  A    between atoms: _88  and  _91
REMARK   38  A    between atoms: _94  and  _96
REMARK   39  A    between atoms: _96  and  _97
REMARK   40  A    between atoms: _96  and  _99
REMARK   41  A    between atoms: _99  and  _100
REMARK   42  A    between atoms: _105  and  _106
REMARK   43  A    between atoms: _108  and  _110
REMARK   44  A    between atoms: _110  and  _111
REMARK   45  A    between atoms: _110  and  _113
REMARK   46  A    between atoms: _113  and  _114
REMARK   47  A    between atoms: _114  and  _115
REMARK   48  A    between atoms: _115  and  _116
REMARK   49  A    between atoms: _116  and  _117
REMARK   50  A    between atoms: _121  and  _123
REMARK   51  A    between atoms: _123  and  _124
REMARK   52  A    between atoms: _127  and  _129
REMARK   53  A    between atoms: _129  and  _130
REMARK   54  A    between atoms: _129  and  _132
REMARK   55  A    between atoms: _132  and  _133
REMARK   56  A    between atoms: _138  and  _139
REMARK   57  A    between atoms: _141  and  _143
REMARK   58  A    between atoms: _143  and  _144
REMARK   59  A    between atoms: _147  and  _149
REMARK   60  A    between atoms: _149  and  _150
REMARK   61  A    between atoms: _149  and  _152
REMARK   62  A    between atoms: _152  and  _153
REMARK   63  A    between atoms: _156  and  _158
REMARK   64  A    between atoms: _158  and  _159
REMARK   65  A    between atoms: _158  and  _161
REMARK   66  A    between atoms: _161  and  _162
REMARK   67  A    between atoms: _162  and  _163
REMARK   68  A    between atoms: _163  and  _164
REMARK   69  A    between atoms: _164  and  _165
REMARK   70  A    between atoms: _169  and  _171
REMARK   71  A    between atoms: _171  and  _172
REMARK   72  A    between atoms: _171  and  _174
REMARK   73  A    between atoms: _174  and  _175
REMARK   74  A    between atoms: _175  and  _176
REMARK   75  A    between atoms: _181  and  _183
REMARK   76  A    between atoms: _183  and  _184
REMARK   77  A    between atoms: _183  and  _186
REMARK   78  A    between atoms: _186  and  _187
REMARK   79  A    between atoms: _190  and  _192
REMARK   80  A    between atoms: _192  and  _193
REMARK   81  A    between atoms: _192  and  _195
REMARK   82  A    between atoms: _195  and  _196
REMARK   83  A    between atoms: _198  and  _200
REMARK   84  A    between atoms: _200  and  _201
REMARK   85  A    between atoms: _200  and  _203
REMARK   86  A    between atoms: _203  and  _204
REMARK   87  A    between atoms: _204  and  _205
REMARK   88  A    between atoms: _207  and  _209
REMARK   89  A    between atoms: _209  and  _210
REMARK   90  A    between atoms: _209  and  _212
REMARK   91  A    between atoms: _212  and  _213
REMARK   92  A    between atoms: _215  and  _217
REMARK   93  A    between atoms: _217  and  _218
REMARK   94  A    between atoms: _221  and  _223
REMARK   95  A    between atoms: _223  and  _224
REMARK   96  A    between atoms: _223  and  _226
REMARK   97  A    between atoms: _228  and  _230
REMARK   98  A    between atoms: _230  and  _231
REMARK   99  A    between atoms: _230  and  _233
REMARK  100  A    between atoms: _233  and  _234
REMARK  101  A    between atoms: _234  and  _235
REMARK  102  A    between atoms: _235  and  _236
REMARK  103  A    between atoms: _245  and  _247
REMARK  104  A    between atoms: _247  and  _248
REMARK  105  A    between atoms: _247  and  _250
REMARK  106  A    between atoms: _250  and  _251
REMARK  107  A    between atoms: _251  and  _252
REMARK  108  A    between atoms: _255  and  _257
REMARK  109  A    between atoms: _257  and  _258
REMARK  110  A    between atoms: _257  and  _260
REMARK  111  A    between atoms: _260  and  _261
REMARK  112  A    between atoms: _264  and  _266
REMARK  113  A    between atoms: _266  and  _267
REMARK  114  A    between atoms: _270  and  _272
REMARK  115  A    between atoms: _272  and  _273
REMARK  116  A    between atoms: _272  and  _275
REMARK  117  A    between atoms: _275  and  _276
REMARK  118  A    between atoms: _279  and  _281
REMARK  119  A    between atoms: _281  and  _282
REMARK  120  A    between atoms: _281  and  _284
REMARK  121  A    between atoms: _284  and  _285
REMARK  122  A    between atoms: _288  and  _290
REMARK  123  A    between atoms: _290  and  _291
REMARK  124  A    between atoms: _290  and  _293
REMARK  125  A    between atoms: _293  and  _294
REMARK  126  A    between atoms: _297  and  _299
REMARK  127  A    between atoms: _299  and  _300
REMARK  128  A    between atoms: _299  and  _302
REMARK  129  A    between atoms: _302  and  _303
REMARK  130  A    between atoms: _308  and  _310
REMARK  131  A    between atoms: _310  and  _311
REMARK  132  A    between atoms: _310  and  _313
REMARK  133  A    between atoms: _316  and  _318
REMARK  134  A    between atoms: _318  and  _319
REMARK  135  A    between atoms: _318  and  _321
REMARK  136  A    between atoms: _321  and  _322
REMARK  137  A    between atoms: _325  and  _327
REMARK  138  A    between atoms: _327  and  _328
REMARK  139  A    between atoms: _327  and  _330
REMARK  140  A    between atoms: _330  and  _331
REMARK  141  A    between atoms: _333  and  _335
REMARK  142  A    between atoms: _335  and  _336
REMARK  143  A    between atoms: _335  and  _338
REMARK  144  A    between atoms: _338  and  _339
REMARK  145  A    between atoms: _342  and  _344
REMARK  146  A    between atoms: _344  and  _345
REMARK  147  A    between atoms: _344  and  _347
REMARK  148  A    between atoms: _347  and  _348
REMARK  149  A    between atoms: _351  and  _353
REMARK  150  A    between atoms: _353  and  _354
REMARK  151  A    between atoms: _353  and  _356
REMARK  152  A    between atoms: _356  and  _357
REMARK  153  A    between atoms: _360  and  _362
REMARK  154  A    between atoms: _362  and  _363
REMARK  155  A    between atoms: _362  and  _365
REMARK  156  A    between atoms: _365  and  _366
REMARK  157  A    between atoms: _372  and  _374
REMARK  158  A    between atoms: _374  and  _375
REMARK  159  A    between atoms: _374  and  _377
REMARK  160  A    between atoms: _377  and  _378
REMARK  161  A    between atoms: _381  and  _383
REMARK  162  A    between atoms: _383  and  _384
REMARK  163  A    between atoms: _383  and  _386
REMARK  164  A    between atoms: _386  and  _387
REMARK  165  A    between atoms: _392  and  _393
REMARK  166  A    between atoms: _395  and  _397
REMARK  167  A    between atoms: _397  and  _398
REMARK  168  A    between atoms: _401  and  _403
REMARK  169  A    between atoms: _403  and  _404
REMARK  170  A    between atoms: _403  and  _406
REMARK  171  A    between atoms: _406  and  _407
REMARK  172  A    between atoms: _407  and  _408
REMARK  173  A    between atoms: _411  and  _413
REMARK  174  A    between atoms: _413  and  _414
REMARK  175  A    between atoms: _413  and  _416
REMARK  176  A    between atoms: _416  and  _417
REMARK  177  A    between atoms: _422  and  _424
REMARK  178  A    between atoms: _424  and  _425
REMARK  179  A    between atoms: _424  and  _427
REMARK  180  A    between atoms: _427  and  _428
REMARK  181  A    between atoms: _431  and  _433
REMARK  182  A    between atoms: _433  and  _434
REMARK  183  A    between atoms: _433  and  _436
REMARK  184  A    between atoms: _436  and  _437
REMARK  185  A    between atoms: _440  and  _442
REMARK  186  A    between atoms: _442  and  _443
REMARK  187  A    between atoms: _442  and  _445
REMARK  188  A    between atoms: _445  and  _446
REMARK  189  A    between atoms: _456  and  _458
REMARK  190  A    between atoms: _458  and  _459
REMARK  191  A    between atoms: _458  and  _461
REMARK  192  A    between atoms: _461  and  _462
REMARK  193  A    between atoms: _467  and  _469
REMARK  194  A    between atoms: _469  and  _470
REMARK  195  A    between atoms: _469  and  _472
REMARK  196  A    between atoms: _472  and  _473
REMARK  197  A    between atoms: _476  and  _478
REMARK  198  A    between atoms: _478  and  _479
REMARK  199  A    between atoms: _478  and  _481
REMARK  200  A    between atoms: _481  and  _482
REMARK  201  A    between atoms: _482  and  _483
REMARK  202  A    between atoms: _483  and  _484
REMARK  203  A    between atoms: _484  and  _485
REMARK  204  A    between atoms: _489  and  _491
REMARK  205  A    between atoms: _491  and  _492
REMARK  206  A    between atoms: _494  and  _496
REMARK  207  A    between atoms: _496  and  _497
REMARK  208  A    between atoms: _496  and  _499
REMARK  209  A    between atoms: _499  and  _500
REMARK  210  A    between atoms: _503  and  _505
REMARK  211  A    between atoms: _505  and  _506
REMARK  212  A    between atoms: _505  and  _508
REMARK  213  A    between atoms: _508  and  _509
REMARK  214  A    between atoms: _514  and  _515
REMARK  215  A    between atoms: _517  and  _519
REMARK  216  A    between atoms: _519  and  _520
REMARK  217  A    between atoms: _519  and  _522
REMARK  218  A    between atoms: _522  and  _523
REMARK  219  A    between atoms: _526  and  _528
REMARK  220  A    between atoms: _528  and  _529
REMARK  221  A    between atoms: _528  and  _531
REMARK  222  A    between atoms: _534  and  _536
REMARK  223  A    between atoms: _536  and  _537
REMARK  224  A    between atoms: _536  and  _539
REMARK  225  A    between atoms: _539  and  _540
REMARK  226  A    between atoms: _543  and  _545
REMARK  227  A    between atoms: _545  and  _546
REMARK  228  A    between atoms: _545  and  _548
REMARK  229  A    between atoms: _548  and  _549
REMARK  230  A    between atoms: _554  and  _556
REMARK  231  A    between atoms: _556  and  _557
REMARK  232  A    between atoms: _556  and  _559
REMARK  233  A    between atoms: _559  and  _560
REMARK  234  A    between atoms: _560  and  _561
REMARK  235  A    between atoms: _561  and  _562
REMARK  236  A    between atoms: _571  and  _573
REMARK  237  A    between atoms: _573  and  _574
REMARK  238  A    between atoms: _573  and  _576
REMARK  239  A    between atoms: _576  and  _577
REMARK  240  A    between atoms: _580  and  _582
REMARK  241  A    between atoms: _582  and  _583
REMARK  242  A    between atoms: _582  and  _585
REMARK  243  A    between atoms: _585  and  _586
REMARK  244  A    between atoms: _589  and  _591
REMARK  245  A    between atoms: _591  and  _592
REMARK  246  A    between atoms: _591  and  _594
REMARK  247  A    between atoms: _594  and  _595
REMARK  248  A    between atoms: _595  and  _596
REMARK  249  A    between atoms: _596  and  _597
REMARK  250  A    between atoms: _597  and  _598
REMARK  251  A    between atoms: _603  and  _604
REMARK  252  A    between atoms: _609  and  _611
REMARK  253  A    between atoms: _611  and  _612
REMARK  254  A    between atoms: _615  and  _617
REMARK  255  A    between atoms: _617  and  _618
REMARK  256  A    between atoms: _617  and  _620
REMARK  257  A    between atoms: _620  and  _621
REMARK  258  A    between atoms: _626  and  _628
REMARK  259  A    between atoms: _628  and  _629
REMARK  260  A    between atoms: _628  and  _631
REMARK  261  A    between atoms: _631  and  _632
REMARK  262  A    between atoms: _635  and  _637
REMARK  263  A    between atoms: _637  and  _638
REMARK  264  A    between atoms: _637  and  _640
REMARK  265  A    between atoms: _640  and  _641
REMARK  266  A    between atoms: _644  and  _646
REMARK  267  A    between atoms: _646  and  _647
REMARK  268  A    between atoms: _646  and  _649
REMARK  269  A    between atoms: _652  and  _654
REMARK  270  A    between atoms: _654  and  _655
REMARK  271  A    between atoms: _654  and  _657
REMARK  272  A    between atoms: _657  and  _658
REMARK  273  A    between atoms: _658  and  _659
REMARK  274  A    between atoms: _659  and  _660
REMARK  275  A    between atoms: _660  and  _661
REMARK  276  A    between atoms: _665  and  _667
REMARK  277  A    between atoms: _667  and  _668
REMARK  278  A    between atoms: _667  and  _670
REMARK  279  A    between atoms: _670  and  _671
REMARK  280  A    between atoms: _674  and  _676
REMARK  281  A    between atoms: _676  and  _677
REMARK  282  A    between atoms: _680  and  _682
REMARK  283  A    between atoms: _682  and  _683
REMARK  284  A    between atoms: _682  and  _685
REMARK  285  A    between atoms: _685  and  _686
REMARK  286  A    between atoms: _689  and  _691
REMARK  287  A    between atoms: _691  and  _692
REMARK  288  A    between atoms: _691  and  _694
REMARK  289  A    between atoms: _694  and  _695
REMARK  290  A    between atoms: _695  and  _696
REMARK  291  A    between atoms: _698  and  _700
REMARK  292  A    between atoms: _700  and  _701
REMARK  293  A    between atoms: _703  and  _705
REMARK  294  A    between atoms: _705  and  _706
REMARK  295  A    between atoms: _705  and  _708
REMARK  296  A    between atoms: _708  and  _709
REMARK  297  A    between atoms: _715  and  _717
REMARK  298  A    between atoms: _717  and  _718
REMARK  299  A    between atoms: _721  and  _723
REMARK  300  A    between atoms: _723  and  _724
REMARK  301  A    between atoms: _723  and  _726
REMARK  302  A    between atoms: _726  and  _727
REMARK  303  A    between atoms: _727  and  _728
REMARK  304  A    between atoms: _728  and  _729
REMARK  305  A    between atoms: _738  and  _740
REMARK  306  A    between atoms: _740  and  _741
REMARK  307  A    between atoms: _740  and  _743
REMARK  308  A    between atoms: _743  and  _744
REMARK  309  A    between atoms: _744  and  _745
REMARK                            x       y       z     vdW  Elec       q    Type
REMARK                         _______ _______ _______ _____ _____    ______ ____
ROOT
ATOM      1  O   HOH     1      40.560  54.042 140.568  0.00  0.00    +0.000 OA
ENDROOT
TORSDOF 0
REMARK  Name = ../refined-set-2016/4f6w/4f6w_pocket.pdb
REMARK  309 active torsions:
REMARK  status: ('A' for Active; 'I' for Inactive)
REMARK    1  A    between atoms: _1  and  _3
REMARK    2  A    between atoms: _3  and  _4
REMARK    3  A    between atoms: _3  and  _6
REMARK    4  A    between atoms: _8  and  _10
REMARK    5  A    between atoms: _10  and  _11
REMARK    6  A    between atoms: _10  and  _13
REMARK    7  A    between atoms: _13  and  _14
REMARK    8  A    between atoms: _14  and  _15
REMARK    9  A    between atoms: _15  and  _16
REMARK   10  A    between atoms: _16  and  _17
REMARK   11  A    between atoms: _21  and  _23
REMARK   12  A    between atoms: _23  and  _24
REMARK   13  A    between atoms: _23  and  _26
REMARK   14  A    between atoms: _29  and  _31
REMARK   15  A    between atoms: _31  and  _32
REMARK   16  A    between atoms: _34  and  _36
REMARK   17  A    between atoms: _36  and  _37
REMARK   18  A    between atoms: _36  and  _39
REMARK   19  A    between atoms: _39  and  _40
REMARK   20  A    between atoms: _40  and  _41
REMARK   21  A    between atoms: _41  and  _42
REMARK   22  A    between atoms: _51  and  _53
REMARK   23  A    between atoms: _53  and  _54
REMARK   24  A    between atoms: _56  and  _58
REMARK   25  A    between atoms: _58  and  _59
REMARK   26  A    between atoms: _58  and  _61
REMARK   27  A    between atoms: _61  and  _62
REMARK   28  A    between atoms: _67  and  _68
REMARK   29  A    between atoms: _70  and  _72
REMARK   30  A    between atoms: _72  and  _73
REMARK   31  A    between atoms: _75  and  _77
REMARK   32  A    between atoms: _77  and  _78
REMARK   33  A    between atoms: _77  and  _80
REMARK   34  A    between atoms: _80  and  _81
REMARK   35  A    between atoms: _86  and  _88
REMARK   36  A    between atoms: _88  and  _89
REMARK   37  A    between atoms: _88  and  _91
REMARK   38  A    between atoms: _94  and  _96
REMARK   39  A    between atoms: _96  and  _97
REMARK   40  A    between atoms: _96  and  _99
REMARK   41  A    between atoms: _99  and  _100
REMARK   42  A    between atoms: _105  and  _106
REMARK   43  A    between atoms: _108  and  _110
REMARK   44  A    between atoms: _110  and  _111
REMARK   45  A    between atoms: _110  and  _113
REMARK   46  A    between atoms: _113  and  _114
REMARK   47  A    between atoms: _114  and  _115
REMARK   48  A    between atoms: _115  and  _116
REMARK   49  A    between atoms: _116  and  _117
REMARK   50  A    between atoms: _121  and  _123
REMARK   51  A    between atoms: _123  and  _124
REMARK   52  A    between atoms: _127  and  _129
REMARK   53  A    between atoms: _129  and  _130
REMARK   54  A    between atoms: _129  and  _132
REMARK   55  A    between atoms: _132  and  _133
REMARK   56  A    between atoms: _138  and  _139
REMARK   57  A    between atoms: _141  and  _143
REMARK   58  A    between atoms: _143  and  _144
REMARK   59  A    between atoms: _147  and  _149
REMARK   60  A    between atoms: _149  and  _150
REMARK   61  A    between atoms: _149  and  _152
REMARK   62  A    between atoms: _152  and  _153
REMARK   63  A    between atoms: _156  and  _158
REMARK   64  A    between atoms: _158  and  _159
REMARK   65  A    between atoms: _158  and  _161
REMARK   66  A    between atoms: _161  and  _162
REMARK   67  A    between atoms: _162  and  _163
REMARK   68  A    between atoms: _163  and  _164
REMARK   69  A    between atoms: _164  and  _165
REMARK   70  A    between atoms: _169  and  _171
REMARK   71  A    between atoms: _171  and  _172
REMARK   72  A    between atoms: _171  and  _174
REMARK   73  A    between atoms: _174  and  _175
REMARK   74  A    between atoms: _175  and  _176
REMARK   75  A    between atoms: _181  and  _183
REMARK   76  A    between atoms: _183  and  _184
REMARK   77  A    between atoms: _183  and  _186
REMARK   78  A    between atoms: _186  and  _187
REMARK   79  A    between atoms: _190  and  _192
REMARK   80  A    between atoms: _192  and  _193
REMARK   81  A    between atoms: _192  and  _195
REMARK   82  A    between atoms: _195  and  _196
REMARK   83  A    between atoms: _198  and  _200
REMARK   84  A    between atoms: _200  and  _201
REMARK   85  A    between atoms: _200  and  _203
REMARK   86  A    between atoms: _203  and  _204
REMARK   87  A    between atoms: _204  and  _205
REMARK   88  A    between atoms: _207  and  _209
REMARK   89  A    between atoms: _209  and  _210
REMARK   90  A    between atoms: _209  and  _212
REMARK   91  A    between atoms: _212  and  _213
REMARK   92  A    between atoms: _215  and  _217
REMARK   93  A    between atoms: _217  and  _218
REMARK   94  A    between atoms: _221  and  _223
REMARK   95  A    between atoms: _223  and  _224
REMARK   96  A    between atoms: _223  and  _226
REMARK   97  A    between atoms: _228  and  _230
REMARK   98  A    between atoms: _230  and  _231
REMARK   99  A    between atoms: _230  and  _233
REMARK  100  A    between atoms: _233  and  _234
REMARK  101  A    between atoms: _234  and  _235
REMARK  102  A    between atoms: _235  and  _236
REMARK  103  A    between atoms: _245  and  _247
REMARK  104  A    between atoms: _247  and  _248
REMARK  105  A    between atoms: _247  and  _250
REMARK  106  A    between atoms: _250  and  _251
REMARK  107  A    between atoms: _251  and  _252
REMARK  108  A    between atoms: _255  and  _257
REMARK  109  A    between atoms: _257  and  _258
REMARK  110  A    between atoms: _257  and  _260
REMARK  111  A    between atoms: _260  and  _261
REMARK  112  A    between atoms: _264  and  _266
REMARK  113  A    between atoms: _266  and  _267
REMARK  114  A    between atoms: _270  and  _272
REMARK  115  A    between atoms: _272  and  _273
REMARK  116  A    between atoms: _272  and  _275
REMARK  117  A    between atoms: _275  and  _276
REMARK  118  A    between atoms: _279  and  _281
REMARK  119  A    between atoms: _281  and  _282
REMARK  120  A    between atoms: _281  and  _284
REMARK  121  A    between atoms: _284  and  _285
REMARK  122  A    between atoms: _288  and  _290
REMARK  123  A    between atoms: _290  and  _291
REMARK  124  A    between atoms: _290  and  _293
REMARK  125  A    between atoms: _293  and  _294
REMARK  126  A    between atoms: _297  and  _299
REMARK  127  A    between atoms: _299  and  _300
REMARK  128  A    between atoms: _299  and  _302
REMARK  129  A    between atoms: _302  and  _303
REMARK  130  A    between atoms: _308  and  _310
REMARK  131  A    between atoms: _310  and  _311
REMARK  132  A    between atoms: _310  and  _313
REMARK  133  A    between atoms: _316  and  _318
REMARK  134  A    between atoms: _318  and  _319
REMARK  135  A    between atoms: _318  and  _321
REMARK  136  A    between atoms: _321  and  _322
REMARK  137  A    between atoms: _325  and  _327
REMARK  138  A    between atoms: _327  and  _328
REMARK  139  A    between atoms: _327  and  _330
REMARK  140  A    between atoms: _330  and  _331
REMARK  141  A    between atoms: _333  and  _335
REMARK  142  A    between atoms: _335  and  _336
REMARK  143  A    between atoms: _335  and  _338
REMARK  144  A    between atoms: _338  and  _339
REMARK  145  A    between atoms: _342  and  _344
REMARK  146  A    between atoms: _344  and  _345
REMARK  147  A    between atoms: _344  and  _347
REMARK  148  A    between atoms: _347  and  _348
REMARK  149  A    between atoms: _351  and  _353
REMARK  150  A    between atoms: _353  and  _354
REMARK  151  A    between atoms: _353  and  _356
REMARK  152  A    between atoms: _356  and  _357
REMARK  153  A    between atoms: _360  and  _362
REMARK  154  A    between atoms: _362  and  _363
REMARK  155  A    between atoms: _362  and  _365
REMARK  156  A    between atoms: _365  and  _366
REMARK  157  A    between atoms: _372  and  _374
REMARK  158  A    between atoms: _374  and  _375
REMARK  159  A    between atoms: _374  and  _377
REMARK  160  A    between atoms: _377  and  _378
REMARK  161  A    between atoms: _381  and  _383
REMARK  162  A    between atoms: _383  and  _384
REMARK  163  A    between atoms: _383  and  _386
REMARK  164  A    between atoms: _386  and  _387
REMARK  165  A    between atoms: _392  and  _393
REMARK  166  A    between atoms: _395  and  _397
REMARK  167  A    between atoms: _397  and  _398
REMARK  168  A    between atoms: _401  and  _403
REMARK  169  A    between atoms: _403  and  _404
REMARK  170  A    between atoms: _403  and  _406
REMARK  171  A    between atoms: _406  and  _407
REMARK  172  A    between atoms: _407  and  _408
REMARK  173  A    between atoms: _411  and  _413
REMARK  174  A    between atoms: _413  and  _414
REMARK  175  A    between atoms: _413  and  _416
REMARK  176  A    between atoms: _416  and  _417
REMARK  177  A    between atoms: _422  and  _424
REMARK  178  A    between atoms: _424  and  _425
REMARK  179  A    between atoms: _424  and  _427
REMARK  180  A    between atoms: _427  and  _428
REMARK  181  A    between atoms: _431  and  _433
REMARK  182  A    between atoms: _433  and  _434
REMARK  183  A    between atoms: _433  and  _436
REMARK  184  A    between atoms: _436  and  _437
REMARK  185  A    between atoms: _440  and  _442
REMARK  186  A    between atoms: _442  and  _443
REMARK  187  A    between atoms: _442  and  _445
REMARK  188  A    between atoms: _445  and  _446
REMARK  189  A    between atoms: _456  and  _458
REMARK  190  A    between atoms: _458  and  _459
REMARK  191  A    between atoms: _458  and  _461
REMARK  192  A    between atoms: _461  and  _462
REMARK  193  A    between atoms: _467  and  _469
REMARK  194  A    between atoms: _469  and  _470
REMARK  195  A    between atoms: _469  and  _472
REMARK  196  A    between atoms: _472  and  _473
REMARK  197  A    between atoms: _476  and  _478
REMARK  198  A    between atoms: _478  and  _479
REMARK  199  A    between atoms: _478  and  _481
REMARK  200  A    between atoms: _481  and  _482
REMARK  201  A    between atoms: _482  and  _483
REMARK  202  A    between atoms: _483  and  _484
REMARK  203  A    between atoms: _484  and  _485
REMARK  204  A    between atoms: _489  and  _491
REMARK  205  A    between atoms: _491  and  _492
REMARK  206  A    between atoms: _494  and  _496
REMARK  207  A    between atoms: _496  and  _497
REMARK  208  A    between atoms: _496  and  _499
REMARK  209  A    between atoms: _499  and  _500
REMARK  210  A    between atoms: _503  and  _505
REMARK  211  A    between atoms: _505  and  _506
REMARK  212  A    between atoms: _505  and  _508
REMARK  213  A    between atoms: _508  and  _509
REMARK  214  A    between atoms: _514  and  _515
REMARK  215  A    between atoms: _517  and  _519
REMARK  216  A    between atoms: _519  and  _520
REMARK  217  A    between atoms: _519  and  _522
REMARK  218  A    between atoms: _522  and  _523
REMARK  219  A    between atoms: _526  and  _528
REMARK  220  A    between atoms: _528  and  _529
REMARK  221  A    between atoms: _528  and  _531
REMARK  222  A    between atoms: _534  and  _536
REMARK  223  A    between atoms: _536  and  _537
REMARK  224  A    between atoms: _536  and  _539
REMARK  225  A    between atoms: _539  and  _540
REMARK  226  A    between atoms: _543  and  _545
REMARK  227  A    between atoms: _545  and  _546
REMARK  228  A    between atoms: _545  and  _548
REMARK  229  A    between atoms: _548  and  _549
REMARK  230  A    between atoms: _554  and  _556
REMARK  231  A    between atoms: _556  and  _557
REMARK  232  A    between atoms: _556  and  _559
REMARK  233  A    between atoms: _559  and  _560
REMARK  234  A    between atoms: _560  and  _561
REMARK  235  A    between atoms: _561  and  _562
REMARK  236  A    between atoms: _571  and  _573
REMARK  237  A    between atoms: _573  and  _574
REMARK  238  A    between atoms: _573  and  _576
REMARK  239  A    between atoms: _576  and  _577
REMARK  240  A    between atoms: _580  and  _582
REMARK  241  A    between atoms: _582  and  _583
REMARK  242  A    between atoms: _582  and  _585
REMARK  243  A    between atoms: _585  and  _586
REMARK  244  A    between atoms: _589  and  _591
REMARK  245  A    between atoms: _591  and  _592
REMARK  246  A    between atoms: _591  and  _594
REMARK  247  A    between atoms: _594  and  _595
REMARK  248  A    between atoms: _595  and  _596
REMARK  249  A    between atoms: _596  and  _597
REMARK  250  A    between atoms: _597  and  _598
REMARK  251  A    between atoms: _603  and  _604
REMARK  252  A    between atoms: _609  and  _611
REMARK  253  A    between atoms: _611  and  _612
REMARK  254  A    between atoms: _615  and  _617
REMARK  255  A    between atoms: _617  and  _618
REMARK  256  A    between atoms: _617  and  _620
REMARK  257  A    between atoms: _620  and  _621
REMARK  258  A    between atoms: _626  and  _628
REMARK  259  A    between atoms: _628  and  _629
REMARK  260  A    between atoms: _628  and  _631
REMARK  261  A    between atoms: _631  and  _632
REMARK  262  A    between atoms: _635  and  _637
REMARK  263  A    between atoms: _637  and  _638
REMARK  264  A    between atoms: _637  and  _640
REMARK  265  A    between atoms: _640  and  _641
REMARK  266  A    between atoms: _644  and  _646
REMARK  267  A    between atoms: _646  and  _647
REMARK  268  A    between atoms: _646  and  _649
REMARK  269  A    between atoms: _652  and  _654
REMARK  270  A    between atoms: _654  and  _655
REMARK  271  A    between atoms: _654  and  _657
REMARK  272  A    between atoms: _657  and  _658
REMARK  273  A    between atoms: _658  and  _659
REMARK  274  A    between atoms: _659  and  _660
REMARK  275  A    between atoms: _660  and  _661
REMARK  276  A    between atoms: _665  and  _667
REMARK  277  A    between atoms: _667  and  _668
REMARK  278  A    between atoms: _667  and  _670
REMARK  279  A    between atoms: _670  and  _671
REMARK  280  A    between atoms: _674  and  _676
REMARK  281  A    between atoms: _676  and  _677
REMARK  282  A    between atoms: _680  and  _682
REMARK  283  A    between atoms: _682  and  _683
REMARK  284  A    between atoms: _682  and  _685
REMARK  285  A    between atoms: _685  and  _686
REMARK  286  A    between atoms: _689  and  _691
REMARK  287  A    between atoms: _691  and  _692
REMARK  288  A    between atoms: _691  and  _694
REMARK  289  A    between atoms: _694  and  _695
REMARK  290  A    between atoms: _695  and  _696
REMARK  291  A    between atoms: _698  and  _700
REMARK  292  A    between atoms: _700  and  _701
REMARK  293  A    between atoms: _703  and  _705
REMARK  294  A    between atoms: _705  and  _706
REMARK  295  A    between atoms: _705  and  _708
REMARK  296  A    between atoms: _708  and  _709
REMARK  297  A    between atoms: _715  and  _717
REMARK  298  A    between atoms: _717  and  _718
REMARK  299  A    between atoms: _721  and  _723
REMARK  300  A    between atoms: _723  and  _724
REMARK  301  A    between atoms: _723  and  _726
REMARK  302  A    between atoms: _726  and  _727
REMARK  303  A    between atoms: _727  and  _728
REMARK  304  A    between atoms: _728  and  _729
REMARK  305  A    between atoms: _738  and  _740
REMARK  306  A    between atoms: _740  and  _741
REMARK  307  A    between atoms: _740  and  _743
REMARK  308  A    between atoms: _743  and  _744
REMARK  309  A    between atoms: _744  and  _745
REMARK                            x       y       z     vdW  Elec       q    Type
REMARK                         _______ _______ _______ _____ _____    ______ ____
ROOT
ATOM      1  O   HOH     1      32.383  60.428 147.898  0.00  0.00    +0.000 OA
ENDROOT
TORSDOF 0
REMARK  Name = ../refined-set-2016/4f6w/4f6w_pocket.pdb
REMARK  309 active torsions:
REMARK  status: ('A' for Active; 'I' for Inactive)
REMARK    1  A    between atoms: _1  and  _3
REMARK    2  A    between atoms: _3  and  _4
REMARK    3  A    between atoms: _3  and  _6
REMARK    4  A    between atoms: _8  and  _10
REMARK    5  A    between atoms: _10  and  _11
REMARK    6  A    between atoms: _10  and  _13
REMARK    7  A    between atoms: _13  and  _14
REMARK    8  A    between atoms: _14  and  _15
REMARK    9  A    between atoms: _15  and  _16
REMARK   10  A    between atoms: _16  and  _17
REMARK   11  A    between atoms: _21  and  _23
REMARK   12  A    between atoms: _23  and  _24
REMARK   13  A    between atoms: _23  and  _26
REMARK   14  A    between atoms: _29  and  _31
REMARK   15  A    between atoms: _31  and  _32
REMARK   16  A    between atoms: _34  and  _36
REMARK   17  A    between atoms: _36  and  _37
REMARK   18  A    between atoms: _36  and  _39
REMARK   19  A    between atoms: _39  and  _40
REMARK   20  A    between atoms: _40  and  _41
REMARK   21  A    between atoms: _41  and  _42
REMARK   22  A    between atoms: _51  and  _53
REMARK   23  A    between atoms: _53  and  _54
REMARK   24  A    between atoms: _56  and  _58
REMARK   25  A    between atoms: _58  and  _59
REMARK   26  A    between atoms: _58  and  _61
REMARK   27  A    between atoms: _61  and  _62
REMARK   28  A    between atoms: _67  and  _68
REMARK   29  A    between atoms: _70  and  _72
REMARK   30  A    between atoms: _72  and  _73
REMARK   31  A    between atoms: _75  and  _77
REMARK   32  A    between atoms: _77  and  _78
REMARK   33  A    between atoms: _77  and  _80
REMARK   34  A    between atoms: _80  and  _81
REMARK   35  A    between atoms: _86  and  _88
REMARK   36  A    between atoms: _88  and  _89
REMARK   37  A    between atoms: _88  and  _91
REMARK   38  A    between atoms: _94  and  _96
REMARK   39  A    between atoms: _96  and  _97
REMARK   40  A    between atoms: _96  and  _99
REMARK   41  A    between atoms: _99  and  _100
REMARK   42  A    between atoms: _105  and  _106
REMARK   43  A    between atoms: _108  and  _110
REMARK   44  A    between atoms: _110  and  _111
REMARK   45  A    between atoms: _110  and  _113
REMARK   46  A    between atoms: _113  and  _114
REMARK   47  A    between atoms: _114  and  _115
REMARK   48  A    between atoms: _115  and  _116
REMARK   49  A    between atoms: _116  and  _117
REMARK   50  A    between atoms: _121  and  _123
REMARK   51  A    between atoms: _123  and  _124
REMARK   52  A    between atoms: _127  and  _129
REMARK   53  A    between atoms: _129  and  _130
REMARK   54  A    between atoms: _129  and  _132
REMARK   55  A    between atoms: _132  and  _133
REMARK   56  A    between atoms: _138  and  _139
REMARK   57  A    between atoms: _141  and  _143
REMARK   58  A    between atoms: _143  and  _144
REMARK   59  A    between atoms: _147  and  _149
REMARK   60  A    between atoms: _149  and  _150
REMARK   61  A    between atoms: _149  and  _152
REMARK   62  A    between atoms: _152  and  _153
REMARK   63  A    between atoms: _156  and  _158
REMARK   64  A    between atoms: _158  and  _159
REMARK   65  A    between atoms: _158  and  _161
REMARK   66  A    between atoms: _161  and  _162
REMARK   67  A    between atoms: _162  and  _163
REMARK   68  A    between atoms: _163  and  _164
REMARK   69  A    between atoms: _164  and  _165
REMARK   70  A    between atoms: _169  and  _171
REMARK   71  A    between atoms: _171  and  _172
REMARK   72  A    between atoms: _171  and  _174
REMARK   73  A    between atoms: _174  and  _175
REMARK   74  A    between atoms: _175  and  _176
REMARK   75  A    between atoms: _181  and  _183
REMARK   76  A    between atoms: _183  and  _184
REMARK   77  A    between atoms: _183  and  _186
REMARK   78  A    between atoms: _186  and  _187
REMARK   79  A    between atoms: _190  and  _192
REMARK   80  A    between atoms: _192  and  _193
REMARK   81  A    between atoms: _192  and  _195
REMARK   82  A    between atoms: _195  and  _196
REMARK   83  A    between atoms: _198  and  _200
REMARK   84  A    between atoms: _200  and  _201
REMARK   85  A    between atoms: _200  and  _203
REMARK   86  A    between atoms: _203  and  _204
REMARK   87  A    between atoms: _204  and  _205
REMARK   88  A    between atoms: _207  and  _209
REMARK   89  A    between atoms: _209  and  _210
REMARK   90  A    between atoms: _209  and  _212
REMARK   91  A    between atoms: _212  and  _213
REMARK   92  A    between atoms: _215  and  _217
REMARK   93  A    between atoms: _217  and  _218
REMARK   94  A    between atoms: _221  and  _223
REMARK   95  A    between atoms: _223  and  _224
REMARK   96  A    between atoms: _223  and  _226
REMARK   97  A    between atoms: _228  and  _230
REMARK   98  A    between atoms: _230  and  _231
REMARK   99  A    between atoms: _230  and  _233
REMARK  100  A    between atoms: _233  and  _234
REMARK  101  A    between atoms: _234  and  _235
REMARK  102  A    between atoms: _235  and  _236
REMARK  103  A    between atoms: _245  and  _247
REMARK  104  A    between atoms: _247  and  _248
REMARK  105  A    between atoms: _247  and  _250
REMARK  106  A    between atoms: _250  and  _251
REMARK  107  A    between atoms: _251  and  _252
REMARK  108  A    between atoms: _255  and  _257
REMARK  109  A    between atoms: _257  and  _258
REMARK  110  A    between atoms: _257  and  _260
REMARK  111  A    between atoms: _260  and  _261
REMARK  112  A    between atoms: _264  and  _266
REMARK  113  A    between atoms: _266  and  _267
REMARK  114  A    between atoms: _270  and  _272
REMARK  115  A    between atoms: _272  and  _273
REMARK  116  A    between atoms: _272  and  _275
REMARK  117  A    between atoms: _275  and  _276
REMARK  118  A    between atoms: _279  and  _281
REMARK  119  A    between atoms: _281  and  _282
REMARK  120  A    between atoms: _281  and  _284
REMARK  121  A    between atoms: _284  and  _285
REMARK  122  A    between atoms: _288  and  _290
REMARK  123  A    between atoms: _290  and  _291
REMARK  124  A    between atoms: _290  and  _293
REMARK  125  A    between atoms: _293  and  _294
REMARK  126  A    between atoms: _297  and  _299
REMARK  127  A    between atoms: _299  and  _300
REMARK  128  A    between atoms: _299  and  _302
REMARK  129  A    between atoms: _302  and  _303
REMARK  130  A    between atoms: _308  and  _310
REMARK  131  A    between atoms: _310  and  _311
REMARK  132  A    between atoms: _310  and  _313
REMARK  133  A    between atoms: _316  and  _318
REMARK  134  A    between atoms: _318  and  _319
REMARK  135  A    between atoms: _318  and  _321
REMARK  136  A    between atoms: _321  and  _322
REMARK  137  A    between atoms: _325  and  _327
REMARK  138  A    between atoms: _327  and  _328
REMARK  139  A    between atoms: _327  and  _330
REMARK  140  A    between atoms: _330  and  _331
REMARK  141  A    between atoms: _333  and  _335
REMARK  142  A    between atoms: _335  and  _336
REMARK  143  A    between atoms: _335  and  _338
REMARK  144  A    between atoms: _338  and  _339
REMARK  145  A    between atoms: _342  and  _344
REMARK  146  A    between atoms: _344  and  _345
REMARK  147  A    between atoms: _344  and  _347
REMARK  148  A    between atoms: _347  and  _348
REMARK  149  A    between atoms: _351  and  _353
REMARK  150  A    between atoms: _353  and  _354
REMARK  151  A    between atoms: _353  and  _356
REMARK  152  A    between atoms: _356  and  _357
REMARK  153  A    between atoms: _360  and  _362
REMARK  154  A    between atoms: _362  and  _363
REMARK  155  A    between atoms: _362  and  _365
REMARK  156  A    between atoms: _365  and  _366
REMARK  157  A    between atoms: _372  and  _374
REMARK  158  A    between atoms: _374  and  _375
REMARK  159  A    between atoms: _374  and  _377
REMARK  160  A    between atoms: _377  and  _378
REMARK  161  A    between atoms: _381  and  _383
REMARK  162  A    between atoms: _383  and  _384
REMARK  163  A    between atoms: _383  and  _386
REMARK  164  A    between atoms: _386  and  _387
REMARK  165  A    between atoms: _392  and  _393
REMARK  166  A    between atoms: _395  and  _397
REMARK  167  A    between atoms: _397  and  _398
REMARK  168  A    between atoms: _401  and  _403
REMARK  169  A    between atoms: _403  and  _404
REMARK  170  A    between atoms: _403  and  _406
REMARK  171  A    between atoms: _406  and  _407
REMARK  172  A    between atoms: _407  and  _408
REMARK  173  A    between atoms: _411  and  _413
REMARK  174  A    between atoms: _413  and  _414
REMARK  175  A    between atoms: _413  and  _416
REMARK  176  A    between atoms: _416  and  _417
REMARK  177  A    between atoms: _422  and  _424
REMARK  178  A    between atoms: _424  and  _425
REMARK  179  A    between atoms: _424  and  _427
REMARK  180  A    between atoms: _427  and  _428
REMARK  181  A    between atoms: _431  and  _433
REMARK  182  A    between atoms: _433  and  _434
REMARK  183  A    between atoms: _433  and  _436
REMARK  184  A    between atoms: _436  and  _437
REMARK  185  A    between atoms: _440  and  _442
REMARK  186  A    between atoms: _442  and  _443
REMARK  187  A    between atoms: _442  and  _445
REMARK  188  A    between atoms: _445  and  _446
REMARK  189  A    between atoms: _456  and  _458
REMARK  190  A    between atoms: _458  and  _459
REMARK  191  A    between atoms: _458  and  _461
REMARK  192  A    between atoms: _461  and  _462
REMARK  193  A    between atoms: _467  and  _469
REMARK  194  A    between atoms: _469  and  _470
REMARK  195  A    between atoms: _469  and  _472
REMARK  196  A    between atoms: _472  and  _473
REMARK  197  A    between atoms: _476  and  _478
REMARK  198  A    between atoms: _478  and  _479
REMARK  199  A    between atoms: _478  and  _481
REMARK  200  A    between atoms: _481  and  _482
REMARK  201  A    between atoms: _482  and  _483
REMARK  202  A    between atoms: _483  and  _484
REMARK  203  A    between atoms: _484  and  _485
REMARK  204  A    between atoms: _489  and  _491
REMARK  205  A    between atoms: _491  and  _492
REMARK  206  A    between atoms: _494  and  _496
REMARK  207  A    between atoms: _496  and  _497
REMARK  208  A    between atoms: _496  and  _499
REMARK  209  A    between atoms: _499  and  _500
REMARK  210  A    between atoms: _503  and  _505
REMARK  211  A    between atoms: _505  and  _506
REMARK  212  A    between atoms: _505  and  _508
REMARK  213  A    between atoms: _508  and  _509
REMARK  214  A    between atoms: _514  and  _515
REMARK  215  A    between atoms: _517  and  _519
REMARK  216  A    between atoms: _519  and  _520
REMARK  217  A    between atoms: _519  and  _522
REMARK  218  A    between atoms: _522  and  _523
REMARK  219  A    between atoms: _526  and  _528
REMARK  220  A    between atoms: _528  and  _529
REMARK  221  A    between atoms: _528  and  _531
REMARK  222  A    between atoms: _534  and  _536
REMARK  223  A    between atoms: _536  and  _537
REMARK  224  A    between atoms: _536  and  _539
REMARK  225  A    between atoms: _539  and  _540
REMARK  226  A    between atoms: _543  and  _545
REMARK  227  A    between atoms: _545  and  _546
REMARK  228  A    between atoms: _545  and  _548
REMARK  229  A    between atoms: _548  and  _549
REMARK  230  A    between atoms: _554  and  _556
REMARK  231  A    between atoms: _556  and  _557
REMARK  232  A    between atoms: _556  and  _559
REMARK  233  A    between atoms: _559  and  _560
REMARK  234  A    between atoms: _560  and  _561
REMARK  235  A    between atoms: _561  and  _562
REMARK  236  A    between atoms: _571  and  _573
REMARK  237  A    between atoms: _573  and  _574
REMARK  238  A    between atoms: _573  and  _576
REMARK  239  A    between atoms: _576  and  _577
REMARK  240  A    between atoms: _580  and  _582
REMARK  241  A    between atoms: _582  and  _583
REMARK  242  A    between atoms: _582  and  _585
REMARK  243  A    between atoms: _585  and  _586
REMARK  244  A    between atoms: _589  and  _591
REMARK  245  A    between atoms: _591  and  _592
REMARK  246  A    between atoms: _591  and  _594
REMARK  247  A    between atoms: _594  and  _595
REMARK  248  A    between atoms: _595  and  _596
REMARK  249  A    between atoms: _596  and  _597
REMARK  250  A    between atoms: _597  and  _598
REMARK  251  A    between atoms: _603  and  _604
REMARK  252  A    between atoms: _609  and  _611
REMARK  253  A    between atoms: _611  and  _612
REMARK  254  A    between atoms: _615  and  _617
REMARK  255  A    between atoms: _617  and  _618
REMARK  256  A    between atoms: _617  and  _620
REMARK  257  A    between atoms: _620  and  _621
REMARK  258  A    between atoms: _626  and  _628
REMARK  259  A    between atoms: _628  and  _629
REMARK  260  A    between atoms: _628  and  _631
REMARK  261  A    between atoms: _631  and  _632
REMARK  262  A    between atoms: _635  and  _637
REMARK  263  A    between atoms: _637  and  _638
REMARK  264  A    between atoms: _637  and  _640
REMARK  265  A    between atoms: _640  and  _641
REMARK  266  A    between atoms: _644  and  _646
REMARK  267  A    between atoms: _646  and  _647
REMARK  268  A    between atoms: _646  and  _649
REMARK  269  A    between atoms: _652  and  _654
REMARK  270  A    between atoms: _654  and  _655
REMARK  271  A    between atoms: _654  and  _657
REMARK  272  A    between atoms: _657  and  _658
REMARK  273  A    between atoms: _658  and  _659
REMARK  274  A    between atoms: _659  and  _660
REMARK  275  A    between atoms: _660  and  _661
REMARK  276  A    between atoms: _665  and  _667
REMARK  277  A    between atoms: _667  and  _668
REMARK  278  A    between atoms: _667  and  _670
REMARK  279  A    between atoms: _670  and  _671
REMARK  280  A    between atoms: _674  and  _676
REMARK  281  A    between atoms: _676  and  _677
REMARK  282  A    between atoms: _680  and  _682
REMARK  283  A    between atoms: _682  and  _683
REMARK  284  A    between atoms: _682  and  _685
REMARK  285  A    between atoms: _685  and  _686
REMARK  286  A    between atoms: _689  and  _691
REMARK  287  A    between atoms: _691  and  _692
REMARK  288  A    between atoms: _691  and  _694
REMARK  289  A    between atoms: _694  and  _695
REMARK  290  A    between atoms: _695  and  _696
REMARK  291  A    between atoms: _698  and  _700
REMARK  292  A    between atoms: _700  and  _701
REMARK  293  A    between atoms: _703  and  _705
REMARK  294  A    between atoms: _705  and  _706
REMARK  295  A    between atoms: _705  and  _708
REMARK  296  A    between atoms: _708  and  _709
REMARK  297  A    between atoms: _715  and  _717
REMARK  298  A    between atoms: _717  and  _718
REMARK  299  A    between atoms: _721  and  _723
REMARK  300  A    between atoms: _723  and  _724
REMARK  301  A    between atoms: _723  and  _726
REMARK  302  A    between atoms: _726  and  _727
REMARK  303  A    between atoms: _727  and  _728
REMARK  304  A    between atoms: _728  and  _729
REMARK  305  A    between atoms: _738  and  _740
REMARK  306  A    between atoms: _740  and  _741
REMARK  307  A    between atoms: _740  and  _743
REMARK  308  A    between atoms: _743  and  _744
REMARK  309  A    between atoms: _744  and  _745
REMARK                            x       y       z     vdW  Elec       q    Type
REMARK                         _______ _______ _______ _____ _____    ______ ____
ROOT
ATOM      1  O   HOH     1      36.668  58.169 143.806  0.00  0.00    +0.000 OA
ENDROOT
TORSDOF 0
REMARK  Name = ../refined-set-2016/4f6w/4f6w_pocket.pdb
REMARK  309 active torsions:
REMARK  status: ('A' for Active; 'I' for Inactive)
REMARK    1  A    between atoms: _1  and  _3
REMARK    2  A    between atoms: _3  and  _4
REMARK    3  A    between atoms: _3  and  _6
REMARK    4  A    between atoms: _8  and  _10
REMARK    5  A    between atoms: _10  and  _11
REMARK    6  A    between atoms: _10  and  _13
REMARK    7  A    between atoms: _13  and  _14
REMARK    8  A    between atoms: _14  and  _15
REMARK    9  A    between atoms: _15  and  _16
REMARK   10  A    between atoms: _16  and  _17
REMARK   11  A    between atoms: _21  and  _23
REMARK   12  A    between atoms: _23  and  _24
REMARK   13  A    between atoms: _23  and  _26
REMARK   14  A    between atoms: _29  and  _31
REMARK   15  A    between atoms: _31  and  _32
REMARK   16  A    between atoms: _34  and  _36
REMARK   17  A    between atoms: _36  and  _37
REMARK   18  A    between atoms: _36  and  _39
REMARK   19  A    between atoms: _39  and  _40
REMARK   20  A    between atoms: _40  and  _41
REMARK   21  A    between atoms: _41  and  _42
REMARK   22  A    between atoms: _51  and  _53
REMARK   23  A    between atoms: _53  and  _54
REMARK   24  A    between atoms: _56  and  _58
REMARK   25  A    between atoms: _58  and  _59
REMARK   26  A    between atoms: _58  and  _61
REMARK   27  A    between atoms: _61  and  _62
REMARK   28  A    between atoms: _67  and  _68
REMARK   29  A    between atoms: _70  and  _72
REMARK   30  A    between atoms: _72  and  _73
REMARK   31  A    between atoms: _75  and  _77
REMARK   32  A    between atoms: _77  and  _78
REMARK   33  A    between atoms: _77  and  _80
REMARK   34  A    between atoms: _80  and  _81
REMARK   35  A    between atoms: _86  and  _88
REMARK   36  A    between atoms: _88  and  _89
REMARK   37  A    between atoms: _88  and  _91
REMARK   38  A    between atoms: _94  and  _96
REMARK   39  A    between atoms: _96  and  _97
REMARK   40  A    between atoms: _96  and  _99
REMARK   41  A    between atoms: _99  and  _100
REMARK   42  A    between atoms: _105  and  _106
REMARK   43  A    between atoms: _108  and  _110
REMARK   44  A    between atoms: _110  and  _111
REMARK   45  A    between atoms: _110  and  _113
REMARK   46  A    between atoms: _113  and  _114
REMARK   47  A    between atoms: _114  and  _115
REMARK   48  A    between atoms: _115  and  _116
REMARK   49  A    between atoms: _116  and  _117
REMARK   50  A    between atoms: _121  and  _123
REMARK   51  A    between atoms: _123  and  _124
REMARK   52  A    between atoms: _127  and  _129
REMARK   53  A    between atoms: _129  and  _130
REMARK   54  A    between atoms: _129  and  _132
REMARK   55  A    between atoms: _132  and  _133
REMARK   56  A    between atoms: _138  and  _139
REMARK   57  A    between atoms: _141  and  _143
REMARK   58  A    between atoms: _143  and  _144
REMARK   59  A    between atoms: _147  and  _149
REMARK   60  A    between atoms: _149  and  _150
REMARK   61  A    between atoms: _149  and  _152
REMARK   62  A    between atoms: _152  and  _153
REMARK   63  A    between atoms: _156  and  _158
REMARK   64  A    between atoms: _158  and  _159
REMARK   65  A    between atoms: _158  and  _161
REMARK   66  A    between atoms: _161  and  _162
REMARK   67  A    between atoms: _162  and  _163
REMARK   68  A    between atoms: _163  and  _164
REMARK   69  A    between atoms: _164  and  _165
REMARK   70  A    between atoms: _169  and  _171
REMARK   71  A    between atoms: _171  and  _172
REMARK   72  A    between atoms: _171  and  _174
REMARK   73  A    between atoms: _174  and  _175
REMARK   74  A    between atoms: _175  and  _176
REMARK   75  A    between atoms: _181  and  _183
REMARK   76  A    between atoms: _183  and  _184
REMARK   77  A    between atoms: _183  and  _186
REMARK   78  A    between atoms: _186  and  _187
REMARK   79  A    between atoms: _190  and  _192
REMARK   80  A    between atoms: _192  and  _193
REMARK   81  A    between atoms: _192  and  _195
REMARK   82  A    between atoms: _195  and  _196
REMARK   83  A    between atoms: _198  and  _200
REMARK   84  A    between atoms: _200  and  _201
REMARK   85  A    between atoms: _200  and  _203
REMARK   86  A    between atoms: _203  and  _204
REMARK   87  A    between atoms: _204  and  _205
REMARK   88  A    between atoms: _207  and  _209
REMARK   89  A    between atoms: _209  and  _210
REMARK   90  A    between atoms: _209  and  _212
REMARK   91  A    between atoms: _212  and  _213
REMARK   92  A    between atoms: _215  and  _217
REMARK   93  A    between atoms: _217  and  _218
REMARK   94  A    between atoms: _221  and  _223
REMARK   95  A    between atoms: _223  and  _224
REMARK   96  A    between atoms: _223  and  _226
REMARK   97  A    between atoms: _228  and  _230
REMARK   98  A    between atoms: _230  and  _231
REMARK   99  A    between atoms: _230  and  _233
REMARK  100  A    between atoms: _233  and  _234
REMARK  101  A    between atoms: _234  and  _235
REMARK  102  A    between atoms: _235  and  _236
REMARK  103  A    between atoms: _245  and  _247
REMARK  104  A    between atoms: _247  and  _248
REMARK  105  A    between atoms: _247  and  _250
REMARK  106  A    between atoms: _250  and  _251
REMARK  107  A    between atoms: _251  and  _252
REMARK  108  A    between atoms: _255  and  _257
REMARK  109  A    between atoms: _257  and  _258
REMARK  110  A    between atoms: _257  and  _260
REMARK  111  A    between atoms: _260  and  _261
REMARK  112  A    between atoms: _264  and  _266
REMARK  113  A    between atoms: _266  and  _267
REMARK  114  A    between atoms: _270  and  _272
REMARK  115  A    between atoms: _272  and  _273
REMARK  116  A    between atoms: _272  and  _275
REMARK  117  A    between atoms: _275  and  _276
REMARK  118  A    between atoms: _279  and  _281
REMARK  119  A    between atoms: _281  and  _282
REMARK  120  A    between atoms: _281  and  _284
REMARK  121  A    between atoms: _284  and  _285
REMARK  122  A    between atoms: _288  and  _290
REMARK  123  A    between atoms: _290  and  _291
REMARK  124  A    between atoms: _290  and  _293
REMARK  125  A    between atoms: _293  and  _294
REMARK  126  A    between atoms: _297  and  _299
REMARK  127  A    between atoms: _299  and  _300
REMARK  128  A    between atoms: _299  and  _302
REMARK  129  A    between atoms: _302  and  _303
REMARK  130  A    between atoms: _308  and  _310
REMARK  131  A    between atoms: _310  and  _311
REMARK  132  A    between atoms: _310  and  _313
REMARK  133  A    between atoms: _316  and  _318
REMARK  134  A    between atoms: _318  and  _319
REMARK  135  A    between atoms: _318  and  _321
REMARK  136  A    between atoms: _321  and  _322
REMARK  137  A    between atoms: _325  and  _327
REMARK  138  A    between atoms: _327  and  _328
REMARK  139  A    between atoms: _327  and  _330
REMARK  140  A    between atoms: _330  and  _331
REMARK  141  A    between atoms: _333  and  _335
REMARK  142  A    between atoms: _335  and  _336
REMARK  143  A    between atoms: _335  and  _338
REMARK  144  A    between atoms: _338  and  _339
REMARK  145  A    between atoms: _342  and  _344
REMARK  146  A    between atoms: _344  and  _345
REMARK  147  A    between atoms: _344  and  _347
REMARK  148  A    between atoms: _347  and  _348
REMARK  149  A    between atoms: _351  and  _353
REMARK  150  A    between atoms: _353  and  _354
REMARK  151  A    between atoms: _353  and  _356
REMARK  152  A    between atoms: _356  and  _357
REMARK  153  A    between atoms: _360  and  _362
REMARK  154  A    between atoms: _362  and  _363
REMARK  155  A    between atoms: _362  and  _365
REMARK  156  A    between atoms: _365  and  _366
REMARK  157  A    between atoms: _372  and  _374
REMARK  158  A    between atoms: _374  and  _375
REMARK  159  A    between atoms: _374  and  _377
REMARK  160  A    between atoms: _377  and  _378
REMARK  161  A    between atoms: _381  and  _383
REMARK  162  A    between atoms: _383  and  _384
REMARK  163  A    between atoms: _383  and  _386
REMARK  164  A    between atoms: _386  and  _387
REMARK  165  A    between atoms: _392  and  _393
REMARK  166  A    between atoms: _395  and  _397
REMARK  167  A    between atoms: _397  and  _398
REMARK  168  A    between atoms: _401  and  _403
REMARK  169  A    between atoms: _403  and  _404
REMARK  170  A    between atoms: _403  and  _406
REMARK  171  A    between atoms: _406  and  _407
REMARK  172  A    between atoms: _407  and  _408
REMARK  173  A    between atoms: _411  and  _413
REMARK  174  A    between atoms: _413  and  _414
REMARK  175  A    between atoms: _413  and  _416
REMARK  176  A    between atoms: _416  and  _417
REMARK  177  A    between atoms: _422  and  _424
REMARK  178  A    between atoms: _424  and  _425
REMARK  179  A    between atoms: _424  and  _427
REMARK  180  A    between atoms: _427  and  _428
REMARK  181  A    between atoms: _431  and  _433
REMARK  182  A    between atoms: _433  and  _434
REMARK  183  A    between atoms: _433  and  _436
REMARK  184  A    between atoms: _436  and  _437
REMARK  185  A    between atoms: _440  and  _442
REMARK  186  A    between atoms: _442  and  _443
REMARK  187  A    between atoms: _442  and  _445
REMARK  188  A    between atoms: _445  and  _446
REMARK  189  A    between atoms: _456  and  _458
REMARK  190  A    between atoms: _458  and  _459
REMARK  191  A    between atoms: _458  and  _461
REMARK  192  A    between atoms: _461  and  _462
REMARK  193  A    between atoms: _467  and  _469
REMARK  194  A    between atoms: _469  and  _470
REMARK  195  A    between atoms: _469  and  _472
REMARK  196  A    between atoms: _472  and  _473
REMARK  197  A    between atoms: _476  and  _478
REMARK  198  A    between atoms: _478  and  _479
REMARK  199  A    between atoms: _478  and  _481
REMARK  200  A    between atoms: _481  and  _482
REMARK  201  A    between atoms: _482  and  _483
REMARK  202  A    between atoms: _483  and  _484
REMARK  203  A    between atoms: _484  and  _485
REMARK  204  A    between atoms: _489  and  _491
REMARK  205  A    between atoms: _491  and  _492
REMARK  206  A    between atoms: _494  and  _496
REMARK  207  A    between atoms: _496  and  _497
REMARK  208  A    between atoms: _496  and  _499
REMARK  209  A    between atoms: _499  and  _500
REMARK  210  A    between atoms: _503  and  _505
REMARK  211  A    between atoms: _505  and  _506
REMARK  212  A    between atoms: _505  and  _508
REMARK  213  A    between atoms: _508  and  _509
REMARK  214  A    between atoms: _514  and  _515
REMARK  215  A    between atoms: _517  and  _519
REMARK  216  A    between atoms: _519  and  _520
REMARK  217  A    between atoms: _519  and  _522
REMARK  218  A    between atoms: _522  and  _523
REMARK  219  A    between atoms: _526  and  _528
REMARK  220  A    between atoms: _528  and  _529
REMARK  221  A    between atoms: _528  and  _531
REMARK  222  A    between atoms: _534  and  _536
REMARK  223  A    between atoms: _536  and  _537
REMARK  224  A    between atoms: _536  and  _539
REMARK  225  A    between atoms: _539  and  _540
REMARK  226  A    between atoms: _543  and  _545
REMARK  227  A    between atoms: _545  and  _546
REMARK  228  A    between atoms: _545  and  _548
REMARK  229  A    between atoms: _548  and  _549
REMARK  230  A    between atoms: _554  and  _556
REMARK  231  A    between atoms: _556  and  _557
REMARK  232  A    between atoms: _556  and  _559
REMARK  233  A    between atoms: _559  and  _560
REMARK  234  A    between atoms: _560  and  _561
REMARK  235  A    between atoms: _561  and  _562
REMARK  236  A    between atoms: _571  and  _573
REMARK  237  A    between atoms: _573  and  _574
REMARK  238  A    between atoms: _573  and  _576
REMARK  239  A    between atoms: _576  and  _577
REMARK  240  A    between atoms: _580  and  _582
REMARK  241  A    between atoms: _582  and  _583
REMARK  242  A    between atoms: _582  and  _585
REMARK  243  A    between atoms: _585  and  _586
REMARK  244  A    between atoms: _589  and  _591
REMARK  245  A    between atoms: _591  and  _592
REMARK  246  A    between atoms: _591  and  _594
REMARK  247  A    between atoms: _594  and  _595
REMARK  248  A    between atoms: _595  and  _596
REMARK  249  A    between atoms: _596  and  _597
REMARK  250  A    between atoms: _597  and  _598
REMARK  251  A    between atoms: _603  and  _604
REMARK  252  A    between atoms: _609  and  _611
REMARK  253  A    between atoms: _611  and  _612
REMARK  254  A    between atoms: _615  and  _617
REMARK  255  A    between atoms: _617  and  _618
REMARK  256  A    between atoms: _617  and  _620
REMARK  257  A    between atoms: _620  and  _621
REMARK  258  A    between atoms: _626  and  _628
REMARK  259  A    between atoms: _628  and  _629
REMARK  260  A    between atoms: _628  and  _631
REMARK  261  A    between atoms: _631  and  _632
REMARK  262  A    between atoms: _635  and  _637
REMARK  263  A    between atoms: _637  and  _638
REMARK  264  A    between atoms: _637  and  _640
REMARK  265  A    between atoms: _640  and  _641
REMARK  266  A    between atoms: _644  and  _646
REMARK  267  A    between atoms: _646  and  _647
REMARK  268  A    between atoms: _646  and  _649
REMARK  269  A    between atoms: _652  and  _654
REMARK  270  A    between atoms: _654  and  _655
REMARK  271  A    between atoms: _654  and  _657
REMARK  272  A    between atoms: _657  and  _658
REMARK  273  A    between atoms: _658  and  _659
REMARK  274  A    between atoms: _659  and  _660
REMARK  275  A    between atoms: _660  and  _661
REMARK  276  A    between atoms: _665  and  _667
REMARK  277  A    between atoms: _667  and  _668
REMARK  278  A    between atoms: _667  and  _670
REMARK  279  A    between atoms: _670  and  _671
REMARK  280  A    between atoms: _674  and  _676
REMARK  281  A    between atoms: _676  and  _677
REMARK  282  A    between atoms: _680  and  _682
REMARK  283  A    between atoms: _682  and  _683
REMARK  284  A    between atoms: _682  and  _685
REMARK  285  A    between atoms: _685  and  _686
REMARK  286  A    between atoms: _689  and  _691
REMARK  287  A    between atoms: _691  and  _692
REMARK  288  A    between atoms: _691  and  _694
REMARK  289  A    between atoms: _694  and  _695
REMARK  290  A    between atoms: _695  and  _696
REMARK  291  A    between atoms: _698  and  _700
REMARK  292  A    between atoms: _700  and  _701
REMARK  293  A    between atoms: _703  and  _705
REMARK  294  A    between atoms: _705  and  _706
REMARK  295  A    between atoms: _705  and  _708
REMARK  296  A    between atoms: _708  and  _709
REMARK  297  A    between atoms: _715  and  _717
REMARK  298  A    between atoms: _717  and  _718
REMARK  299  A    between atoms: _721  and  _723
REMARK  300  A    between atoms: _723  and  _724
REMARK  301  A    between atoms: _723  and  _726
REMARK  302  A    between atoms: _726  and  _727
REMARK  303  A    between atoms: _727  and  _728
REMARK  304  A    between atoms: _728  and  _729
REMARK  305  A    between atoms: _738  and  _740
REMARK  306  A    between atoms: _740  and  _741
REMARK  307  A    between atoms: _740  and  _743
REMARK  308  A    between atoms: _743  and  _744
REMARK  309  A    between atoms: _744  and  _745
REMARK                            x       y       z     vdW  Elec       q    Type
REMARK                         _______ _______ _______ _____ _____    ______ ____
ROOT
ATOM      1  O   HOH     1      44.274  60.980 139.989  0.00  0.00    +0.000 OA
ENDROOT
TORSDOF 0
REMARK  Name = ../refined-set-2016/4f6w/4f6w_pocket.pdb
REMARK  309 active torsions:
REMARK  status: ('A' for Active; 'I' for Inactive)
REMARK    1  A    between atoms: _1  and  _3
REMARK    2  A    between atoms: _3  and  _4
REMARK    3  A    between atoms: _3  and  _6
REMARK    4  A    between atoms: _8  and  _10
REMARK    5  A    between atoms: _10  and  _11
REMARK    6  A    between atoms: _10  and  _13
REMARK    7  A    between atoms: _13  and  _14
REMARK    8  A    between atoms: _14  and  _15
REMARK    9  A    between atoms: _15  and  _16
REMARK   10  A    between atoms: _16  and  _17
REMARK   11  A    between atoms: _21  and  _23
REMARK   12  A    between atoms: _23  and  _24
REMARK   13  A    between atoms: _23  and  _26
REMARK   14  A    between atoms: _29  and  _31
REMARK   15  A    between atoms: _31  and  _32
REMARK   16  A    between atoms: _34  and  _36
REMARK   17  A    between atoms: _36  and  _37
REMARK   18  A    between atoms: _36  and  _39
REMARK   19  A    between atoms: _39  and  _40
REMARK   20  A    between atoms: _40  and  _41
REMARK   21  A    between atoms: _41  and  _42
REMARK   22  A    between atoms: _51  and  _53
REMARK   23  A    between atoms: _53  and  _54
REMARK   24  A    between atoms: _56  and  _58
REMARK   25  A    between atoms: _58  and  _59
REMARK   26  A    between atoms: _58  and  _61
REMARK   27  A    between atoms: _61  and  _62
REMARK   28  A    between atoms: _67  and  _68
REMARK   29  A    between atoms: _70  and  _72
REMARK   30  A    between atoms: _72  and  _73
REMARK   31  A    between atoms: _75  and  _77
REMARK   32  A    between atoms: _77  and  _78
REMARK   33  A    between atoms: _77  and  _80
REMARK   34  A    between atoms: _80  and  _81
REMARK   35  A    between atoms: _86  and  _88
REMARK   36  A    between atoms: _88  and  _89
REMARK   37  A    between atoms: _88  and  _91
REMARK   38  A    between atoms: _94  and  _96
REMARK   39  A    between atoms: _96  and  _97
REMARK   40  A    between atoms: _96  and  _99
REMARK   41  A    between atoms: _99  and  _100
REMARK   42  A    between atoms: _105  and  _106
REMARK   43  A    between atoms: _108  and  _110
REMARK   44  A    between atoms: _110  and  _111
REMARK   45  A    between atoms: _110  and  _113
REMARK   46  A    between atoms: _113  and  _114
REMARK   47  A    between atoms: _114  and  _115
REMARK   48  A    between atoms: _115  and  _116
REMARK   49  A    between atoms: _116  and  _117
REMARK   50  A    between atoms: _121  and  _123
REMARK   51  A    between atoms: _123  and  _124
REMARK   52  A    between atoms: _127  and  _129
REMARK   53  A    between atoms: _129  and  _130
REMARK   54  A    between atoms: _129  and  _132
REMARK   55  A    between atoms: _132  and  _133
REMARK   56  A    between atoms: _138  and  _139
REMARK   57  A    between atoms: _141  and  _143
REMARK   58  A    between atoms: _143  and  _144
REMARK   59  A    between atoms: _147  and  _149
REMARK   60  A    between atoms: _149  and  _150
REMARK   61  A    between atoms: _149  and  _152
REMARK   62  A    between atoms: _152  and  _153
REMARK   63  A    between atoms: _156  and  _158
REMARK   64  A    between atoms: _158  and  _159
REMARK   65  A    between atoms: _158  and  _161
REMARK   66  A    between atoms: _161  and  _162
REMARK   67  A    between atoms: _162  and  _163
REMARK   68  A    between atoms: _163  and  _164
REMARK   69  A    between atoms: _164  and  _165
REMARK   70  A    between atoms: _169  and  _171
REMARK   71  A    between atoms: _171  and  _172
REMARK   72  A    between atoms: _171  and  _174
REMARK   73  A    between atoms: _174  and  _175
REMARK   74  A    between atoms: _175  and  _176
REMARK   75  A    between atoms: _181  and  _183
REMARK   76  A    between atoms: _183  and  _184
REMARK   77  A    between atoms: _183  and  _186
REMARK   78  A    between atoms: _186  and  _187
REMARK   79  A    between atoms: _190  and  _192
REMARK   80  A    between atoms: _192  and  _193
REMARK   81  A    between atoms: _192  and  _195
REMARK   82  A    between atoms: _195  and  _196
REMARK   83  A    between atoms: _198  and  _200
REMARK   84  A    between atoms: _200  and  _201
REMARK   85  A    between atoms: _200  and  _203
REMARK   86  A    between atoms: _203  and  _204
REMARK   87  A    between atoms: _204  and  _205
REMARK   88  A    between atoms: _207  and  _209
REMARK   89  A    between atoms: _209  and  _210
REMARK   90  A    between atoms: _209  and  _212
REMARK   91  A    between atoms: _212  and  _213
REMARK   92  A    between atoms: _215  and  _217
REMARK   93  A    between atoms: _217  and  _218
REMARK   94  A    between atoms: _221  and  _223
REMARK   95  A    between atoms: _223  and  _224
REMARK   96  A    between atoms: _223  and  _226
REMARK   97  A    between atoms: _228  and  _230
REMARK   98  A    between atoms: _230  and  _231
REMARK   99  A    between atoms: _230  and  _233
REMARK  100  A    between atoms: _233  and  _234
REMARK  101  A    between atoms: _234  and  _235
REMARK  102  A    between atoms: _235  and  _236
REMARK  103  A    between atoms: _245  and  _247
REMARK  104  A    between atoms: _247  and  _248
REMARK  105  A    between atoms: _247  and  _250
REMARK  106  A    between atoms: _250  and  _251
REMARK  107  A    between atoms: _251  and  _252
REMARK  108  A    between atoms: _255  and  _257
REMARK  109  A    between atoms: _257  and  _258
REMARK  110  A    between atoms: _257  and  _260
REMARK  111  A    between atoms: _260  and  _261
REMARK  112  A    between atoms: _264  and  _266
REMARK  113  A    between atoms: _266  and  _267
REMARK  114  A    between atoms: _270  and  _272
REMARK  115  A    between atoms: _272  and  _273
REMARK  116  A    between atoms: _272  and  _275
REMARK  117  A    between atoms: _275  and  _276
REMARK  118  A    between atoms: _279  and  _281
REMARK  119  A    between atoms: _281  and  _282
REMARK  120  A    between atoms: _281  and  _284
REMARK  121  A    between atoms: _284  and  _285
REMARK  122  A    between atoms: _288  and  _290
REMARK  123  A    between atoms: _290  and  _291
REMARK  124  A    between atoms: _290  and  _293
REMARK  125  A    between atoms: _293  and  _294
REMARK  126  A    between atoms: _297  and  _299
REMARK  127  A    between atoms: _299  and  _300
REMARK  128  A    between atoms: _299  and  _302
REMARK  129  A    between atoms: _302  and  _303
REMARK  130  A    between atoms: _308  and  _310
REMARK  131  A    between atoms: _310  and  _311
REMARK  132  A    between atoms: _310  and  _313
REMARK  133  A    between atoms: _316  and  _318
REMARK  134  A    between atoms: _318  and  _319
REMARK  135  A    between atoms: _318  and  _321
REMARK  136  A    between atoms: _321  and  _322
REMARK  137  A    between atoms: _325  and  _327
REMARK  138  A    between atoms: _327  and  _328
REMARK  139  A    between atoms: _327  and  _330
REMARK  140  A    between atoms: _330  and  _331
REMARK  141  A    between atoms: _333  and  _335
REMARK  142  A    between atoms: _335  and  _336
REMARK  143  A    between atoms: _335  and  _338
REMARK  144  A    between atoms: _338  and  _339
REMARK  145  A    between atoms: _342  and  _344
REMARK  146  A    between atoms: _344  and  _345
REMARK  147  A    between atoms: _344  and  _347
REMARK  148  A    between atoms: _347  and  _348
REMARK  149  A    between atoms: _351  and  _353
REMARK  150  A    between atoms: _353  and  _354
REMARK  151  A    between atoms: _353  and  _356
REMARK  152  A    between atoms: _356  and  _357
REMARK  153  A    between atoms: _360  and  _362
REMARK  154  A    between atoms: _362  and  _363
REMARK  155  A    between atoms: _362  and  _365
REMARK  156  A    between atoms: _365  and  _366
REMARK  157  A    between atoms: _372  and  _374
REMARK  158  A    between atoms: _374  and  _375
REMARK  159  A    between atoms: _374  and  _377
REMARK  160  A    between atoms: _377  and  _378
REMARK  161  A    between atoms: _381  and  _383
REMARK  162  A    between atoms: _383  and  _384
REMARK  163  A    between atoms: _383  and  _386
REMARK  164  A    between atoms: _386  and  _387
REMARK  165  A    between atoms: _392  and  _393
REMARK  166  A    between atoms: _395  and  _397
REMARK  167  A    between atoms: _397  and  _398
REMARK  168  A    between atoms: _401  and  _403
REMARK  169  A    between atoms: _403  and  _404
REMARK  170  A    between atoms: _403  and  _406
REMARK  171  A    between atoms: _406  and  _407
REMARK  172  A    between atoms: _407  and  _408
REMARK  173  A    between atoms: _411  and  _413
REMARK  174  A    between atoms: _413  and  _414
REMARK  175  A    between atoms: _413  and  _416
REMARK  176  A    between atoms: _416  and  _417
REMARK  177  A    between atoms: _422  and  _424
REMARK  178  A    between atoms: _424  and  _425
REMARK  179  A    between atoms: _424  and  _427
REMARK  180  A    between atoms: _427  and  _428
REMARK  181  A    between atoms: _431  and  _433
REMARK  182  A    between atoms: _433  and  _434
REMARK  183  A    between atoms: _433  and  _436
REMARK  184  A    between atoms: _436  and  _437
REMARK  185  A    between atoms: _440  and  _442
REMARK  186  A    between atoms: _442  and  _443
REMARK  187  A    between atoms: _442  and  _445
REMARK  188  A    between atoms: _445  and  _446
REMARK  189  A    between atoms: _456  and  _458
REMARK  190  A    between atoms: _458  and  _459
REMARK  191  A    between atoms: _458  and  _461
REMARK  192  A    between atoms: _461  and  _462
REMARK  193  A    between atoms: _467  and  _469
REMARK  194  A    between atoms: _469  and  _470
REMARK  195  A    between atoms: _469  and  _472
REMARK  196  A    between atoms: _472  and  _473
REMARK  197  A    between atoms: _476  and  _478
REMARK  198  A    between atoms: _478  and  _479
REMARK  199  A    between atoms: _478  and  _481
REMARK  200  A    between atoms: _481  and  _482
REMARK  201  A    between atoms: _482  and  _483
REMARK  202  A    between atoms: _483  and  _484
REMARK  203  A    between atoms: _484  and  _485
REMARK  204  A    between atoms: _489  and  _491
REMARK  205  A    between atoms: _491  and  _492
REMARK  206  A    between atoms: _494  and  _496
REMARK  207  A    between atoms: _496  and  _497
REMARK  208  A    between atoms: _496  and  _499
REMARK  209  A    between atoms: _499  and  _500
REMARK  210  A    between atoms: _503  and  _505
REMARK  211  A    between atoms: _505  and  _506
REMARK  212  A    between atoms: _505  and  _508
REMARK  213  A    between atoms: _508  and  _509
REMARK  214  A    between atoms: _514  and  _515
REMARK  215  A    between atoms: _517  and  _519
REMARK  216  A    between atoms: _519  and  _520
REMARK  217  A    between atoms: _519  and  _522
REMARK  218  A    between atoms: _522  and  _523
REMARK  219  A    between atoms: _526  and  _528
REMARK  220  A    between atoms: _528  and  _529
REMARK  221  A    between atoms: _528  and  _531
REMARK  222  A    between atoms: _534  and  _536
REMARK  223  A    between atoms: _536  and  _537
REMARK  224  A    between atoms: _536  and  _539
REMARK  225  A    between atoms: _539  and  _540
REMARK  226  A    between atoms: _543  and  _545
REMARK  227  A    between atoms: _545  and  _546
REMARK  228  A    between atoms: _545  and  _548
REMARK  229  A    between atoms: _548  and  _549
REMARK  230  A    between atoms: _554  and  _556
REMARK  231  A    between atoms: _556  and  _557
REMARK  232  A    between atoms: _556  and  _559
REMARK  233  A    between atoms: _559  and  _560
REMARK  234  A    between atoms: _560  and  _561
REMARK  235  A    between atoms: _561  and  _562
REMARK  236  A    between atoms: _571  and  _573
REMARK  237  A    between atoms: _573  and  _574
REMARK  238  A    between atoms: _573  and  _576
REMARK  239  A    between atoms: _576  and  _577
REMARK  240  A    between atoms: _580  and  _582
REMARK  241  A    between atoms: _582  and  _583
REMARK  242  A    between atoms: _582  and  _585
REMARK  243  A    between atoms: _585  and  _586
REMARK  244  A    between atoms: _589  and  _591
REMARK  245  A    between atoms: _591  and  _592
REMARK  246  A    between atoms: _591  and  _594
REMARK  247  A    between atoms: _594  and  _595
REMARK  248  A    between atoms: _595  and  _596
REMARK  249  A    between atoms: _596  and  _597
REMARK  250  A    between atoms: _597  and  _598
REMARK  251  A    between atoms: _603  and  _604
REMARK  252  A    between atoms: _609  and  _611
REMARK  253  A    between atoms: _611  and  _612
REMARK  254  A    between atoms: _615  and  _617
REMARK  255  A    between atoms: _617  and  _618
REMARK  256  A    between atoms: _617  and  _620
REMARK  257  A    between atoms: _620  and  _621
REMARK  258  A    between atoms: _626  and  _628
REMARK  259  A    between atoms: _628  and  _629
REMARK  260  A    between atoms: _628  and  _631
REMARK  261  A    between atoms: _631  and  _632
REMARK  262  A    between atoms: _635  and  _637
REMARK  263  A    between atoms: _637  and  _638
REMARK  264  A    between atoms: _637  and  _640
REMARK  265  A    between atoms: _640  and  _641
REMARK  266  A    between atoms: _644  and  _646
REMARK  267  A    between atoms: _646  and  _647
REMARK  268  A    between atoms: _646  and  _649
REMARK  269  A    between atoms: _652  and  _654
REMARK  270  A    between atoms: _654  and  _655
REMARK  271  A    between atoms: _654  and  _657
REMARK  272  A    between atoms: _657  and  _658
REMARK  273  A    between atoms: _658  and  _659
REMARK  274  A    between atoms: _659  and  _660
REMARK  275  A    between atoms: _660  and  _661
REMARK  276  A    between atoms: _665  and  _667
REMARK  277  A    between atoms: _667  and  _668
REMARK  278  A    between atoms: _667  and  _670
REMARK  279  A    between atoms: _670  and  _671
REMARK  280  A    between atoms: _674  and  _676
REMARK  281  A    between atoms: _676  and  _677
REMARK  282  A    between atoms: _680  and  _682
REMARK  283  A    between atoms: _682  and  _683
REMARK  284  A    between atoms: _682  and  _685
REMARK  285  A    between atoms: _685  and  _686
REMARK  286  A    between atoms: _689  and  _691
REMARK  287  A    between atoms: _691  and  _692
REMARK  288  A    between atoms: _691  and  _694
REMARK  289  A    between atoms: _694  and  _695
REMARK  290  A    between atoms: _695  and  _696
REMARK  291  A    between atoms: _698  and  _700
REMARK  292  A    between atoms: _700  and  _701
REMARK  293  A    between atoms: _703  and  _705
REMARK  294  A    between atoms: _705  and  _706
REMARK  295  A    between atoms: _705  and  _708
REMARK  296  A    between atoms: _708  and  _709
REMARK  297  A    between atoms: _715  and  _717
REMARK  298  A    between atoms: _717  and  _718
REMARK  299  A    between atoms: _721  and  _723
REMARK  300  A    between atoms: _723  and  _724
REMARK  301  A    between atoms: _723  and  _726
REMARK  302  A    between atoms: _726  and  _727
REMARK  303  A    between atoms: _727  and  _728
REMARK  304  A    between atoms: _728  and  _729
REMARK  305  A    between atoms: _738  and  _740
REMARK  306  A    between atoms: _740  and  _741
REMARK  307  A    between atoms: _740  and  _743
REMARK  308  A    between atoms: _743  and  _744
REMARK  309  A    between atoms: _744  and  _745
REMARK                            x       y       z     vdW  Elec       q    Type
REMARK                         _______ _______ _______ _____ _____    ______ ____
ROOT
ATOM      1  O   HOH     1      45.719  60.613 151.336  0.00  0.00    +0.000 OA
ENDROOT
TORSDOF 0
REMARK  Name = ../refined-set-2016/4f6w/4f6w_pocket.pdb
REMARK  309 active torsions:
REMARK  status: ('A' for Active; 'I' for Inactive)
REMARK    1  A    between atoms: _1  and  _3
REMARK    2  A    between atoms: _3  and  _4
REMARK    3  A    between atoms: _3  and  _6
REMARK    4  A    between atoms: _8  and  _10
REMARK    5  A    between atoms: _10  and  _11
REMARK    6  A    between atoms: _10  and  _13
REMARK    7  A    between atoms: _13  and  _14
REMARK    8  A    between atoms: _14  and  _15
REMARK    9  A    between atoms: _15  and  _16
REMARK   10  A    between atoms: _16  and  _17
REMARK   11  A    between atoms: _21  and  _23
REMARK   12  A    between atoms: _23  and  _24
REMARK   13  A    between atoms: _23  and  _26
REMARK   14  A    between atoms: _29  and  _31
REMARK   15  A    between atoms: _31  and  _32
REMARK   16  A    between atoms: _34  and  _36
REMARK   17  A    between atoms: _36  and  _37
REMARK   18  A    between atoms: _36  and  _39
REMARK   19  A    between atoms: _39  and  _40
REMARK   20  A    between atoms: _40  and  _41
REMARK   21  A    between atoms: _41  and  _42
REMARK   22  A    between atoms: _51  and  _53
REMARK   23  A    between atoms: _53  and  _54
REMARK   24  A    between atoms: _56  and  _58
REMARK   25  A    between atoms: _58  and  _59
REMARK   26  A    between atoms: _58  and  _61
REMARK   27  A    between atoms: _61  and  _62
REMARK   28  A    between atoms: _67  and  _68
REMARK   29  A    between atoms: _70  and  _72
REMARK   30  A    between atoms: _72  and  _73
REMARK   31  A    between atoms: _75  and  _77
REMARK   32  A    between atoms: _77  and  _78
REMARK   33  A    between atoms: _77  and  _80
REMARK   34  A    between atoms: _80  and  _81
REMARK   35  A    between atoms: _86  and  _88
REMARK   36  A    between atoms: _88  and  _89
REMARK   37  A    between atoms: _88  and  _91
REMARK   38  A    between atoms: _94  and  _96
REMARK   39  A    between atoms: _96  and  _97
REMARK   40  A    between atoms: _96  and  _99
REMARK   41  A    between atoms: _99  and  _100
REMARK   42  A    between atoms: _105  and  _106
REMARK   43  A    between atoms: _108  and  _110
REMARK   44  A    between atoms: _110  and  _111
REMARK   45  A    between atoms: _110  and  _113
REMARK   46  A    between atoms: _113  and  _114
REMARK   47  A    between atoms: _114  and  _115
REMARK   48  A    between atoms: _115  and  _116
REMARK   49  A    between atoms: _116  and  _117
REMARK   50  A    between atoms: _121  and  _123
REMARK   51  A    between atoms: _123  and  _124
REMARK   52  A    between atoms: _127  and  _129
REMARK   53  A    between atoms: _129  and  _130
REMARK   54  A    between atoms: _129  and  _132
REMARK   55  A    between atoms: _132  and  _133
REMARK   56  A    between atoms: _138  and  _139
REMARK   57  A    between atoms: _141  and  _143
REMARK   58  A    between atoms: _143  and  _144
REMARK   59  A    between atoms: _147  and  _149
REMARK   60  A    between atoms: _149  and  _150
REMARK   61  A    between atoms: _149  and  _152
REMARK   62  A    between atoms: _152  and  _153
REMARK   63  A    between atoms: _156  and  _158
REMARK   64  A    between atoms: _158  and  _159
REMARK   65  A    between atoms: _158  and  _161
REMARK   66  A    between atoms: _161  and  _162
REMARK   67  A    between atoms: _162  and  _163
REMARK   68  A    between atoms: _163  and  _164
REMARK   69  A    between atoms: _164  and  _165
REMARK   70  A    between atoms: _169  and  _171
REMARK   71  A    between atoms: _171  and  _172
REMARK   72  A    between atoms: _171  and  _174
REMARK   73  A    between atoms: _174  and  _175
REMARK   74  A    between atoms: _175  and  _176
REMARK   75  A    between atoms: _181  and  _183
REMARK   76  A    between atoms: _183  and  _184
REMARK   77  A    between atoms: _183  and  _186
REMARK   78  A    between atoms: _186  and  _187
REMARK   79  A    between atoms: _190  and  _192
REMARK   80  A    between atoms: _192  and  _193
REMARK   81  A    between atoms: _192  and  _195
REMARK   82  A    between atoms: _195  and  _196
REMARK   83  A    between atoms: _198  and  _200
REMARK   84  A    between atoms: _200  and  _201
REMARK   85  A    between atoms: _200  and  _203
REMARK   86  A    between atoms: _203  and  _204
REMARK   87  A    between atoms: _204  and  _205
REMARK   88  A    between atoms: _207  and  _209
REMARK   89  A    between atoms: _209  and  _210
REMARK   90  A    between atoms: _209  and  _212
REMARK   91  A    between atoms: _212  and  _213
REMARK   92  A    between atoms: _215  and  _217
REMARK   93  A    between atoms: _217  and  _218
REMARK   94  A    between atoms: _221  and  _223
REMARK   95  A    between atoms: _223  and  _224
REMARK   96  A    between atoms: _223  and  _226
REMARK   97  A    between atoms: _228  and  _230
REMARK   98  A    between atoms: _230  and  _231
REMARK   99  A    between atoms: _230  and  _233
REMARK  100  A    between atoms: _233  and  _234
REMARK  101  A    between atoms: _234  and  _235
REMARK  102  A    between atoms: _235  and  _236
REMARK  103  A    between atoms: _245  and  _247
REMARK  104  A    between atoms: _247  and  _248
REMARK  105  A    between atoms: _247  and  _250
REMARK  106  A    between atoms: _250  and  _251
REMARK  107  A    between atoms: _251  and  _252
REMARK  108  A    between atoms: _255  and  _257
REMARK  109  A    between atoms: _257  and  _258
REMARK  110  A    between atoms: _257  and  _260
REMARK  111  A    between atoms: _260  and  _261
REMARK  112  A    between atoms: _264  and  _266
REMARK  113  A    between atoms: _266  and  _267
REMARK  114  A    between atoms: _270  and  _272
REMARK  115  A    between atoms: _272  and  _273
REMARK  116  A    between atoms: _272  and  _275
REMARK  117  A    between atoms: _275  and  _276
REMARK  118  A    between atoms: _279  and  _281
REMARK  119  A    between atoms: _281  and  _282
REMARK  120  A    between atoms: _281  and  _284
REMARK  121  A    between atoms: _284  and  _285
REMARK  122  A    between atoms: _288  and  _290
REMARK  123  A    between atoms: _290  and  _291
REMARK  124  A    between atoms: _290  and  _293
REMARK  125  A    between atoms: _293  and  _294
REMARK  126  A    between atoms: _297  and  _299
REMARK  127  A    between atoms: _299  and  _300
REMARK  128  A    between atoms: _299  and  _302
REMARK  129  A    between atoms: _302  and  _303
REMARK  130  A    between atoms: _308  and  _310
REMARK  131  A    between atoms: _310  and  _311
REMARK  132  A    between atoms: _310  and  _313
REMARK  133  A    between atoms: _316  and  _318
REMARK  134  A    between atoms: _318  and  _319
REMARK  135  A    between atoms: _318  and  _321
REMARK  136  A    between atoms: _321  and  _322
REMARK  137  A    between atoms: _325  and  _327
REMARK  138  A    between atoms: _327  and  _328
REMARK  139  A    between atoms: _327  and  _330
REMARK  140  A    between atoms: _330  and  _331
REMARK  141  A    between atoms: _333  and  _335
REMARK  142  A    between atoms: _335  and  _336
REMARK  143  A    between atoms: _335  and  _338
REMARK  144  A    between atoms: _338  and  _339
REMARK  145  A    between atoms: _342  and  _344
REMARK  146  A    between atoms: _344  and  _345
REMARK  147  A    between atoms: _344  and  _347
REMARK  148  A    between atoms: _347  and  _348
REMARK  149  A    between atoms: _351  and  _353
REMARK  150  A    between atoms: _353  and  _354
REMARK  151  A    between atoms: _353  and  _356
REMARK  152  A    between atoms: _356  and  _357
REMARK  153  A    between atoms: _360  and  _362
REMARK  154  A    between atoms: _362  and  _363
REMARK  155  A    between atoms: _362  and  _365
REMARK  156  A    between atoms: _365  and  _366
REMARK  157  A    between atoms: _372  and  _374
REMARK  158  A    between atoms: _374  and  _375
REMARK  159  A    between atoms: _374  and  _377
REMARK  160  A    between atoms: _377  and  _378
REMARK  161  A    between atoms: _381  and  _383
REMARK  162  A    between atoms: _383  and  _384
REMARK  163  A    between atoms: _383  and  _386
REMARK  164  A    between atoms: _386  and  _387
REMARK  165  A    between atoms: _392  and  _393
REMARK  166  A    between atoms: _395  and  _397
REMARK  167  A    between atoms: _397  and  _398
REMARK  168  A    between atoms: _401  and  _403
REMARK  169  A    between atoms: _403  and  _404
REMARK  170  A    between atoms: _403  and  _406
REMARK  171  A    between atoms: _406  and  _407
REMARK  172  A    between atoms: _407  and  _408
REMARK  173  A    between atoms: _411  and  _413
REMARK  174  A    between atoms: _413  and  _414
REMARK  175  A    between atoms: _413  and  _416
REMARK  176  A    between atoms: _416  and  _417
REMARK  177  A    between atoms: _422  and  _424
REMARK  178  A    between atoms: _424  and  _425
REMARK  179  A    between atoms: _424  and  _427
REMARK  180  A    between atoms: _427  and  _428
REMARK  181  A    between atoms: _431  and  _433
REMARK  182  A    between atoms: _433  and  _434
REMARK  183  A    between atoms: _433  and  _436
REMARK  184  A    between atoms: _436  and  _437
REMARK  185  A    between atoms: _440  and  _442
REMARK  186  A    between atoms: _442  and  _443
REMARK  187  A    between atoms: _442  and  _445
REMARK  188  A    between atoms: _445  and  _446
REMARK  189  A    between atoms: _456  and  _458
REMARK  190  A    between atoms: _458  and  _459
REMARK  191  A    between atoms: _458  and  _461
REMARK  192  A    between atoms: _461  and  _462
REMARK  193  A    between atoms: _467  and  _469
REMARK  194  A    between atoms: _469  and  _470
REMARK  195  A    between atoms: _469  and  _472
REMARK  196  A    between atoms: _472  and  _473
REMARK  197  A    between atoms: _476  and  _478
REMARK  198  A    between atoms: _478  and  _479
REMARK  199  A    between atoms: _478  and  _481
REMARK  200  A    between atoms: _481  and  _482
REMARK  201  A    between atoms: _482  and  _483
REMARK  202  A    between atoms: _483  and  _484
REMARK  203  A    between atoms: _484  and  _485
REMARK  204  A    between atoms: _489  and  _491
REMARK  205  A    between atoms: _491  and  _492
REMARK  206  A    between atoms: _494  and  _496
REMARK  207  A    between atoms: _496  and  _497
REMARK  208  A    between atoms: _496  and  _499
REMARK  209  A    between atoms: _499  and  _500
REMARK  210  A    between atoms: _503  and  _505
REMARK  211  A    between atoms: _505  and  _506
REMARK  212  A    between atoms: _505  and  _508
REMARK  213  A    between atoms: _508  and  _509
REMARK  214  A    between atoms: _514  and  _515
REMARK  215  A    between atoms: _517  and  _519
REMARK  216  A    between atoms: _519  and  _520
REMARK  217  A    between atoms: _519  and  _522
REMARK  218  A    between atoms: _522  and  _523
REMARK  219  A    between atoms: _526  and  _528
REMARK  220  A    between atoms: _528  and  _529
REMARK  221  A    between atoms: _528  and  _531
REMARK  222  A    between atoms: _534  and  _536
REMARK  223  A    between atoms: _536  and  _537
REMARK  224  A    between atoms: _536  and  _539
REMARK  225  A    between atoms: _539  and  _540
REMARK  226  A    between atoms: _543  and  _545
REMARK  227  A    between atoms: _545  and  _546
REMARK  228  A    between atoms: _545  and  _548
REMARK  229  A    between atoms: _548  and  _549
REMARK  230  A    between atoms: _554  and  _556
REMARK  231  A    between atoms: _556  and  _557
REMARK  232  A    between atoms: _556  and  _559
REMARK  233  A    between atoms: _559  and  _560
REMARK  234  A    between atoms: _560  and  _561
REMARK  235  A    between atoms: _561  and  _562
REMARK  236  A    between atoms: _571  and  _573
REMARK  237  A    between atoms: _573  and  _574
REMARK  238  A    between atoms: _573  and  _576
REMARK  239  A    between atoms: _576  and  _577
REMARK  240  A    between atoms: _580  and  _582
REMARK  241  A    between atoms: _582  and  _583
REMARK  242  A    between atoms: _582  and  _585
REMARK  243  A    between atoms: _585  and  _586
REMARK  244  A    between atoms: _589  and  _591
REMARK  245  A    between atoms: _591  and  _592
REMARK  246  A    between atoms: _591  and  _594
REMARK  247  A    between atoms: _594  and  _595
REMARK  248  A    between atoms: _595  and  _596
REMARK  249  A    between atoms: _596  and  _597
REMARK  250  A    between atoms: _597  and  _598
REMARK  251  A    between atoms: _603  and  _604
REMARK  252  A    between atoms: _609  and  _611
REMARK  253  A    between atoms: _611  and  _612
REMARK  254  A    between atoms: _615  and  _617
REMARK  255  A    between atoms: _617  and  _618
REMARK  256  A    between atoms: _617  and  _620
REMARK  257  A    between atoms: _620  and  _621
REMARK  258  A    between atoms: _626  and  _628
REMARK  259  A    between atoms: _628  and  _629
REMARK  260  A    between atoms: _628  and  _631
REMARK  261  A    between atoms: _631  and  _632
REMARK  262  A    between atoms: _635  and  _637
REMARK  263  A    between atoms: _637  and  _638
REMARK  264  A    between atoms: _637  and  _640
REMARK  265  A    between atoms: _640  and  _641
REMARK  266  A    between atoms: _644  and  _646
REMARK  267  A    between atoms: _646  and  _647
REMARK  268  A    between atoms: _646  and  _649
REMARK  269  A    between atoms: _652  and  _654
REMARK  270  A    between atoms: _654  and  _655
REMARK  271  A    between atoms: _654  and  _657
REMARK  272  A    between atoms: _657  and  _658
REMARK  273  A    between atoms: _658  and  _659
REMARK  274  A    between atoms: _659  and  _660
REMARK  275  A    between atoms: _660  and  _661
REMARK  276  A    between atoms: _665  and  _667
REMARK  277  A    between atoms: _667  and  _668
REMARK  278  A    between atoms: _667  and  _670
REMARK  279  A    between atoms: _670  and  _671
REMARK  280  A    between atoms: _674  and  _676
REMARK  281  A    between atoms: _676  and  _677
REMARK  282  A    between atoms: _680  and  _682
REMARK  283  A    between atoms: _682  and  _683
REMARK  284  A    between atoms: _682  and  _685
REMARK  285  A    between atoms: _685  and  _686
REMARK  286  A    between atoms: _689  and  _691
REMARK  287  A    between atoms: _691  and  _692
REMARK  288  A    between atoms: _691  and  _694
REMARK  289  A    between atoms: _694  and  _695
REMARK  290  A    between atoms: _695  and  _696
REMARK  291  A    between atoms: _698  and  _700
REMARK  292  A    between atoms: _700  and  _701
REMARK  293  A    between atoms: _703  and  _705
REMARK  294  A    between atoms: _705  and  _706
REMARK  295  A    between atoms: _705  and  _708
REMARK  296  A    between atoms: _708  and  _709
REMARK  297  A    between atoms: _715  and  _717
REMARK  298  A    between atoms: _717  and  _718
REMARK  299  A    between atoms: _721  and  _723
REMARK  300  A    between atoms: _723  and  _724
REMARK  301  A    between atoms: _723  and  _726
REMARK  302  A    between atoms: _726  and  _727
REMARK  303  A    between atoms: _727  and  _728
REMARK  304  A    between atoms: _728  and  _729
REMARK  305  A    between atoms: _738  and  _740
REMARK  306  A    between atoms: _740  and  _741
REMARK  307  A    between atoms: _740  and  _743
REMARK  308  A    between atoms: _743  and  _744
REMARK  309  A    between atoms: _744  and  _745
REMARK                            x       y       z     vdW  Elec       q    Type
REMARK                         _______ _______ _______ _____ _____    ______ ____
ROOT
ATOM      1  O   HOH     1      36.188  50.864 144.317  0.00  0.00    +0.000 OA
ENDROOT
TORSDOF 0
REMARK  Name = ../refined-set-2016/4f6w/4f6w_pocket.pdb
REMARK  309 active torsions:
REMARK  status: ('A' for Active; 'I' for Inactive)
REMARK    1  A    between atoms: _1  and  _3
REMARK    2  A    between atoms: _3  and  _4
REMARK    3  A    between atoms: _3  and  _6
REMARK    4  A    between atoms: _8  and  _10
REMARK    5  A    between atoms: _10  and  _11
REMARK    6  A    between atoms: _10  and  _13
REMARK    7  A    between atoms: _13  and  _14
REMARK    8  A    between atoms: _14  and  _15
REMARK    9  A    between atoms: _15  and  _16
REMARK   10  A    between atoms: _16  and  _17
REMARK   11  A    between atoms: _21  and  _23
REMARK   12  A    between atoms: _23  and  _24
REMARK   13  A    between atoms: _23  and  _26
REMARK   14  A    between atoms: _29  and  _31
REMARK   15  A    between atoms: _31  and  _32
REMARK   16  A    between atoms: _34  and  _36
REMARK   17  A    between atoms: _36  and  _37
REMARK   18  A    between atoms: _36  and  _39
REMARK   19  A    between atoms: _39  and  _40
REMARK   20  A    between atoms: _40  and  _41
REMARK   21  A    between atoms: _41  and  _42
REMARK   22  A    between atoms: _51  and  _53
REMARK   23  A    between atoms: _53  and  _54
REMARK   24  A    between atoms: _56  and  _58
REMARK   25  A    between atoms: _58  and  _59
REMARK   26  A    between atoms: _58  and  _61
REMARK   27  A    between atoms: _61  and  _62
REMARK   28  A    between atoms: _67  and  _68
REMARK   29  A    between atoms: _70  and  _72
REMARK   30  A    between atoms: _72  and  _73
REMARK   31  A    between atoms: _75  and  _77
REMARK   32  A    between atoms: _77  and  _78
REMARK   33  A    between atoms: _77  and  _80
REMARK   34  A    between atoms: _80  and  _81
REMARK   35  A    between atoms: _86  and  _88
REMARK   36  A    between atoms: _88  and  _89
REMARK   37  A    between atoms: _88  and  _91
REMARK   38  A    between atoms: _94  and  _96
REMARK   39  A    between atoms: _96  and  _97
REMARK   40  A    between atoms: _96  and  _99
REMARK   41  A    between atoms: _99  and  _100
REMARK   42  A    between atoms: _105  and  _106
REMARK   43  A    between atoms: _108  and  _110
REMARK   44  A    between atoms: _110  and  _111
REMARK   45  A    between atoms: _110  and  _113
REMARK   46  A    between atoms: _113  and  _114
REMARK   47  A    between atoms: _114  and  _115
REMARK   48  A    between atoms: _115  and  _116
REMARK   49  A    between atoms: _116  and  _117
REMARK   50  A    between atoms: _121  and  _123
REMARK   51  A    between atoms: _123  and  _124
REMARK   52  A    between atoms: _127  and  _129
REMARK   53  A    between atoms: _129  and  _130
REMARK   54  A    between atoms: _129  and  _132
REMARK   55  A    between atoms: _132  and  _133
REMARK   56  A    between atoms: _138  and  _139
REMARK   57  A    between atoms: _141  and  _143
REMARK   58  A    between atoms: _143  and  _144
REMARK   59  A    between atoms: _147  and  _149
REMARK   60  A    between atoms: _149  and  _150
REMARK   61  A    between atoms: _149  and  _152
REMARK   62  A    between atoms: _152  and  _153
REMARK   63  A    between atoms: _156  and  _158
REMARK   64  A    between atoms: _158  and  _159
REMARK   65  A    between atoms: _158  and  _161
REMARK   66  A    between atoms: _161  and  _162
REMARK   67  A    between atoms: _162  and  _163
REMARK   68  A    between atoms: _163  and  _164
REMARK   69  A    between atoms: _164  and  _165
REMARK   70  A    between atoms: _169  and  _171
REMARK   71  A    between atoms: _171  and  _172
REMARK   72  A    between atoms: _171  and  _174
REMARK   73  A    between atoms: _174  and  _175
REMARK   74  A    between atoms: _175  and  _176
REMARK   75  A    between atoms: _181  and  _183
REMARK   76  A    between atoms: _183  and  _184
REMARK   77  A    between atoms: _183  and  _186
REMARK   78  A    between atoms: _186  and  _187
REMARK   79  A    between atoms: _190  and  _192
REMARK   80  A    between atoms: _192  and  _193
REMARK   81  A    between atoms: _192  and  _195
REMARK   82  A    between atoms: _195  and  _196
REMARK   83  A    between atoms: _198  and  _200
REMARK   84  A    between atoms: _200  and  _201
REMARK   85  A    between atoms: _200  and  _203
REMARK   86  A    between atoms: _203  and  _204
REMARK   87  A    between atoms: _204  and  _205
REMARK   88  A    between atoms: _207  and  _209
REMARK   89  A    between atoms: _209  and  _210
REMARK   90  A    between atoms: _209  and  _212
REMARK   91  A    between atoms: _212  and  _213
REMARK   92  A    between atoms: _215  and  _217
REMARK   93  A    between atoms: _217  and  _218
REMARK   94  A    between atoms: _221  and  _223
REMARK   95  A    between atoms: _223  and  _224
REMARK   96  A    between atoms: _223  and  _226
REMARK   97  A    between atoms: _228  and  _230
REMARK   98  A    between atoms: _230  and  _231
REMARK   99  A    between atoms: _230  and  _233
REMARK  100  A    between atoms: _233  and  _234
REMARK  101  A    between atoms: _234  and  _235
REMARK  102  A    between atoms: _235  and  _236
REMARK  103  A    between atoms: _245  and  _247
REMARK  104  A    between atoms: _247  and  _248
REMARK  105  A    between atoms: _247  and  _250
REMARK  106  A    between atoms: _250  and  _251
REMARK  107  A    between atoms: _251  and  _252
REMARK  108  A    between atoms: _255  and  _257
REMARK  109  A    between atoms: _257  and  _258
REMARK  110  A    between atoms: _257  and  _260
REMARK  111  A    between atoms: _260  and  _261
REMARK  112  A    between atoms: _264  and  _266
REMARK  113  A    between atoms: _266  and  _267
REMARK  114  A    between atoms: _270  and  _272
REMARK  115  A    between atoms: _272  and  _273
REMARK  116  A    between atoms: _272  and  _275
REMARK  117  A    between atoms: _275  and  _276
REMARK  118  A    between atoms: _279  and  _281
REMARK  119  A    between atoms: _281  and  _282
REMARK  120  A    between atoms: _281  and  _284
REMARK  121  A    between atoms: _284  and  _285
REMARK  122  A    between atoms: _288  and  _290
REMARK  123  A    between atoms: _290  and  _291
REMARK  124  A    between atoms: _290  and  _293
REMARK  125  A    between atoms: _293  and  _294
REMARK  126  A    between atoms: _297  and  _299
REMARK  127  A    between atoms: _299  and  _300
REMARK  128  A    between atoms: _299  and  _302
REMARK  129  A    between atoms: _302  and  _303
REMARK  130  A    between atoms: _308  and  _310
REMARK  131  A    between atoms: _310  and  _311
REMARK  132  A    between atoms: _310  and  _313
REMARK  133  A    between atoms: _316  and  _318
REMARK  134  A    between atoms: _318  and  _319
REMARK  135  A    between atoms: _318  and  _321
REMARK  136  A    between atoms: _321  and  _322
REMARK  137  A    between atoms: _325  and  _327
REMARK  138  A    between atoms: _327  and  _328
REMARK  139  A    between atoms: _327  and  _330
REMARK  140  A    between atoms: _330  and  _331
REMARK  141  A    between atoms: _333  and  _335
REMARK  142  A    between atoms: _335  and  _336
REMARK  143  A    between atoms: _335  and  _338
REMARK  144  A    between atoms: _338  and  _339
REMARK  145  A    between atoms: _342  and  _344
REMARK  146  A    between atoms: _344  and  _345
REMARK  147  A    between atoms: _344  and  _347
REMARK  148  A    between atoms: _347  and  _348
REMARK  149  A    between atoms: _351  and  _353
REMARK  150  A    between atoms: _353  and  _354
REMARK  151  A    between atoms: _353  and  _356
REMARK  152  A    between atoms: _356  and  _357
REMARK  153  A    between atoms: _360  and  _362
REMARK  154  A    between atoms: _362  and  _363
REMARK  155  A    between atoms: _362  and  _365
REMARK  156  A    between atoms: _365  and  _366
REMARK  157  A    between atoms: _372  and  _374
REMARK  158  A    between atoms: _374  and  _375
REMARK  159  A    between atoms: _374  and  _377
REMARK  160  A    between atoms: _377  and  _378
REMARK  161  A    between atoms: _381  and  _383
REMARK  162  A    between atoms: _383  and  _384
REMARK  163  A    between atoms: _383  and  _386
REMARK  164  A    between atoms: _386  and  _387
REMARK  165  A    between atoms: _392  and  _393
REMARK  166  A    between atoms: _395  and  _397
REMARK  167  A    between atoms: _397  and  _398
REMARK  168  A    between atoms: _401  and  _403
REMARK  169  A    between atoms: _403  and  _404
REMARK  170  A    between atoms: _403  and  _406
REMARK  171  A    between atoms: _406  and  _407
REMARK  172  A    between atoms: _407  and  _408
REMARK  173  A    between atoms: _411  and  _413
REMARK  174  A    between atoms: _413  and  _414
REMARK  175  A    between atoms: _413  and  _416
REMARK  176  A    between atoms: _416  and  _417
REMARK  177  A    between atoms: _422  and  _424
REMARK  178  A    between atoms: _424  and  _425
REMARK  179  A    between atoms: _424  and  _427
REMARK  180  A    between atoms: _427  and  _428
REMARK  181  A    between atoms: _431  and  _433
REMARK  182  A    between atoms: _433  and  _434
REMARK  183  A    between atoms: _433  and  _436
REMARK  184  A    between atoms: _436  and  _437
REMARK  185  A    between atoms: _440  and  _442
REMARK  186  A    between atoms: _442  and  _443
REMARK  187  A    between atoms: _442  and  _445
REMARK  188  A    between atoms: _445  and  _446
REMARK  189  A    between atoms: _456  and  _458
REMARK  190  A    between atoms: _458  and  _459
REMARK  191  A    between atoms: _458  and  _461
REMARK  192  A    between atoms: _461  and  _462
REMARK  193  A    between atoms: _467  and  _469
REMARK  194  A    between atoms: _469  and  _470
REMARK  195  A    between atoms: _469  and  _472
REMARK  196  A    between atoms: _472  and  _473
REMARK  197  A    between atoms: _476  and  _478
REMARK  198  A    between atoms: _478  and  _479
REMARK  199  A    between atoms: _478  and  _481
REMARK  200  A    between atoms: _481  and  _482
REMARK  201  A    between atoms: _482  and  _483
REMARK  202  A    between atoms: _483  and  _484
REMARK  203  A    between atoms: _484  and  _485
REMARK  204  A    between atoms: _489  and  _491
REMARK  205  A    between atoms: _491  and  _492
REMARK  206  A    between atoms: _494  and  _496
REMARK  207  A    between atoms: _496  and  _497
REMARK  208  A    between atoms: _496  and  _499
REMARK  209  A    between atoms: _499  and  _500
REMARK  210  A    between atoms: _503  and  _505
REMARK  211  A    between atoms: _505  and  _506
REMARK  212  A    between atoms: _505  and  _508
REMARK  213  A    between atoms: _508  and  _509
REMARK  214  A    between atoms: _514  and  _515
REMARK  215  A    between atoms: _517  and  _519
REMARK  216  A    between atoms: _519  and  _520
REMARK  217  A    between atoms: _519  and  _522
REMARK  218  A    between atoms: _522  and  _523
REMARK  219  A    between atoms: _526  and  _528
REMARK  220  A    between atoms: _528  and  _529
REMARK  221  A    between atoms: _528  and  _531
REMARK  222  A    between atoms: _534  and  _536
REMARK  223  A    between atoms: _536  and  _537
REMARK  224  A    between atoms: _536  and  _539
REMARK  225  A    between atoms: _539  and  _540
REMARK  226  A    between atoms: _543  and  _545
REMARK  227  A    between atoms: _545  and  _546
REMARK  228  A    between atoms: _545  and  _548
REMARK  229  A    between atoms: _548  and  _549
REMARK  230  A    between atoms: _554  and  _556
REMARK  231  A    between atoms: _556  and  _557
REMARK  232  A    between atoms: _556  and  _559
REMARK  233  A    between atoms: _559  and  _560
REMARK  234  A    between atoms: _560  and  _561
REMARK  235  A    between atoms: _561  and  _562
REMARK  236  A    between atoms: _571  and  _573
REMARK  237  A    between atoms: _573  and  _574
REMARK  238  A    between atoms: _573  and  _576
REMARK  239  A    between atoms: _576  and  _577
REMARK  240  A    between atoms: _580  and  _582
REMARK  241  A    between atoms: _582  and  _583
REMARK  242  A    between atoms: _582  and  _585
REMARK  243  A    between atoms: _585  and  _586
REMARK  244  A    between atoms: _589  and  _591
REMARK  245  A    between atoms: _591  and  _592
REMARK  246  A    between atoms: _591  and  _594
REMARK  247  A    between atoms: _594  and  _595
REMARK  248  A    between atoms: _595  and  _596
REMARK  249  A    between atoms: _596  and  _597
REMARK  250  A    between atoms: _597  and  _598
REMARK  251  A    between atoms: _603  and  _604
REMARK  252  A    between atoms: _609  and  _611
REMARK  253  A    between atoms: _611  and  _612
REMARK  254  A    between atoms: _615  and  _617
REMARK  255  A    between atoms: _617  and  _618
REMARK  256  A    between atoms: _617  and  _620
REMARK  257  A    between atoms: _620  and  _621
REMARK  258  A    between atoms: _626  and  _628
REMARK  259  A    between atoms: _628  and  _629
REMARK  260  A    between atoms: _628  and  _631
REMARK  261  A    between atoms: _631  and  _632
REMARK  262  A    between atoms: _635  and  _637
REMARK  263  A    between atoms: _637  and  _638
REMARK  264  A    between atoms: _637  and  _640
REMARK  265  A    between atoms: _640  and  _641
REMARK  266  A    between atoms: _644  and  _646
REMARK  267  A    between atoms: _646  and  _647
REMARK  268  A    between atoms: _646  and  _649
REMARK  269  A    between atoms: _652  and  _654
REMARK  270  A    between atoms: _654  and  _655
REMARK  271  A    between atoms: _654  and  _657
REMARK  272  A    between atoms: _657  and  _658
REMARK  273  A    between atoms: _658  and  _659
REMARK  274  A    between atoms: _659  and  _660
REMARK  275  A    between atoms: _660  and  _661
REMARK  276  A    between atoms: _665  and  _667
REMARK  277  A    between atoms: _667  and  _668
REMARK  278  A    between atoms: _667  and  _670
REMARK  279  A    between atoms: _670  and  _671
REMARK  280  A    between atoms: _674  and  _676
REMARK  281  A    between atoms: _676  and  _677
REMARK  282  A    between atoms: _680  and  _682
REMARK  283  A    between atoms: _682  and  _683
REMARK  284  A    between atoms: _682  and  _685
REMARK  285  A    between atoms: _685  and  _686
REMARK  286  A    between atoms: _689  and  _691
REMARK  287  A    between atoms: _691  and  _692
REMARK  288  A    between atoms: _691  and  _694
REMARK  289  A    between atoms: _694  and  _695
REMARK  290  A    between atoms: _695  and  _696
REMARK  291  A    between atoms: _698  and  _700
REMARK  292  A    between atoms: _700  and  _701
REMARK  293  A    between atoms: _703  and  _705
REMARK  294  A    between atoms: _705  and  _706
REMARK  295  A    between atoms: _705  and  _708
REMARK  296  A    between atoms: _708  and  _709
REMARK  297  A    between atoms: _715  and  _717
REMARK  298  A    between atoms: _717  and  _718
REMARK  299  A    between atoms: _721  and  _723
REMARK  300  A    between atoms: _723  and  _724
REMARK  301  A    between atoms: _723  and  _726
REMARK  302  A    between atoms: _726  and  _727
REMARK  303  A    between atoms: _727  and  _728
REMARK  304  A    between atoms: _728  and  _729
REMARK  305  A    between atoms: _738  and  _740
REMARK  306  A    between atoms: _740  and  _741
REMARK  307  A    between atoms: _740  and  _743
REMARK  308  A    between atoms: _743  and  _744
REMARK  309  A    between atoms: _744  and  _745
REMARK                            x       y       z     vdW  Elec       q    Type
REMARK                         _______ _______ _______ _____ _____    ______ ____
ROOT
ATOM      1  O   HOH     1      38.160  50.751 157.054  0.00  0.00    +0.000 OA
ENDROOT
TORSDOF 0
REMARK  Name = ../refined-set-2016/4f6w/4f6w_pocket.pdb
REMARK  309 active torsions:
REMARK  status: ('A' for Active; 'I' for Inactive)
REMARK    1  A    between atoms: _1  and  _3
REMARK    2  A    between atoms: _3  and  _4
REMARK    3  A    between atoms: _3  and  _6
REMARK    4  A    between atoms: _8  and  _10
REMARK    5  A    between atoms: _10  and  _11
REMARK    6  A    between atoms: _10  and  _13
REMARK    7  A    between atoms: _13  and  _14
REMARK    8  A    between atoms: _14  and  _15
REMARK    9  A    between atoms: _15  and  _16
REMARK   10  A    between atoms: _16  and  _17
REMARK   11  A    between atoms: _21  and  _23
REMARK   12  A    between atoms: _23  and  _24
REMARK   13  A    between atoms: _23  and  _26
REMARK   14  A    between atoms: _29  and  _31
REMARK   15  A    between atoms: _31  and  _32
REMARK   16  A    between atoms: _34  and  _36
REMARK   17  A    between atoms: _36  and  _37
REMARK   18  A    between atoms: _36  and  _39
REMARK   19  A    between atoms: _39  and  _40
REMARK   20  A    between atoms: _40  and  _41
REMARK   21  A    between atoms: _41  and  _42
REMARK   22  A    between atoms: _51  and  _53
REMARK   23  A    between atoms: _53  and  _54
REMARK   24  A    between atoms: _56  and  _58
REMARK   25  A    between atoms: _58  and  _59
REMARK   26  A    between atoms: _58  and  _61
REMARK   27  A    between atoms: _61  and  _62
REMARK   28  A    between atoms: _67  and  _68
REMARK   29  A    between atoms: _70  and  _72
REMARK   30  A    between atoms: _72  and  _73
REMARK   31  A    between atoms: _75  and  _77
REMARK   32  A    between atoms: _77  and  _78
REMARK   33  A    between atoms: _77  and  _80
REMARK   34  A    between atoms: _80  and  _81
REMARK   35  A    between atoms: _86  and  _88
REMARK   36  A    between atoms: _88  and  _89
REMARK   37  A    between atoms: _88  and  _91
REMARK   38  A    between atoms: _94  and  _96
REMARK   39  A    between atoms: _96  and  _97
REMARK   40  A    between atoms: _96  and  _99
REMARK   41  A    between atoms: _99  and  _100
REMARK   42  A    between atoms: _105  and  _106
REMARK   43  A    between atoms: _108  and  _110
REMARK   44  A    between atoms: _110  and  _111
REMARK   45  A    between atoms: _110  and  _113
REMARK   46  A    between atoms: _113  and  _114
REMARK   47  A    between atoms: _114  and  _115
REMARK   48  A    between atoms: _115  and  _116
REMARK   49  A    between atoms: _116  and  _117
REMARK   50  A    between atoms: _121  and  _123
REMARK   51  A    between atoms: _123  and  _124
REMARK   52  A    between atoms: _127  and  _129
REMARK   53  A    between atoms: _129  and  _130
REMARK   54  A    between atoms: _129  and  _132
REMARK   55  A    between atoms: _132  and  _133
REMARK   56  A    between atoms: _138  and  _139
REMARK   57  A    between atoms: _141  and  _143
REMARK   58  A    between atoms: _143  and  _144
REMARK   59  A    between atoms: _147  and  _149
REMARK   60  A    between atoms: _149  and  _150
REMARK   61  A    between atoms: _149  and  _152
REMARK   62  A    between atoms: _152  and  _153
REMARK   63  A    between atoms: _156  and  _158
REMARK   64  A    between atoms: _158  and  _159
REMARK   65  A    between atoms: _158  and  _161
REMARK   66  A    between atoms: _161  and  _162
REMARK   67  A    between atoms: _162  and  _163
REMARK   68  A    between atoms: _163  and  _164
REMARK   69  A    between atoms: _164  and  _165
REMARK   70  A    between atoms: _169  and  _171
REMARK   71  A    between atoms: _171  and  _172
REMARK   72  A    between atoms: _171  and  _174
REMARK   73  A    between atoms: _174  and  _175
REMARK   74  A    between atoms: _175  and  _176
REMARK   75  A    between atoms: _181  and  _183
REMARK   76  A    between atoms: _183  and  _184
REMARK   77  A    between atoms: _183  and  _186
REMARK   78  A    between atoms: _186  and  _187
REMARK   79  A    between atoms: _190  and  _192
REMARK   80  A    between atoms: _192  and  _193
REMARK   81  A    between atoms: _192  and  _195
REMARK   82  A    between atoms: _195  and  _196
REMARK   83  A    between atoms: _198  and  _200
REMARK   84  A    between atoms: _200  and  _201
REMARK   85  A    between atoms: _200  and  _203
REMARK   86  A    between atoms: _203  and  _204
REMARK   87  A    between atoms: _204  and  _205
REMARK   88  A    between atoms: _207  and  _209
REMARK   89  A    between atoms: _209  and  _210
REMARK   90  A    between atoms: _209  and  _212
REMARK   91  A    between atoms: _212  and  _213
REMARK   92  A    between atoms: _215  and  _217
REMARK   93  A    between atoms: _217  and  _218
REMARK   94  A    between atoms: _221  and  _223
REMARK   95  A    between atoms: _223  and  _224
REMARK   96  A    between atoms: _223  and  _226
REMARK   97  A    between atoms: _228  and  _230
REMARK   98  A    between atoms: _230  and  _231
REMARK   99  A    between atoms: _230  and  _233
REMARK  100  A    between atoms: _233  and  _234
REMARK  101  A    between atoms: _234  and  _235
REMARK  102  A    between atoms: _235  and  _236
REMARK  103  A    between atoms: _245  and  _247
REMARK  104  A    between atoms: _247  and  _248
REMARK  105  A    between atoms: _247  and  _250
REMARK  106  A    between atoms: _250  and  _251
REMARK  107  A    between atoms: _251  and  _252
REMARK  108  A    between atoms: _255  and  _257
REMARK  109  A    between atoms: _257  and  _258
REMARK  110  A    between atoms: _257  and  _260
REMARK  111  A    between atoms: _260  and  _261
REMARK  112  A    between atoms: _264  and  _266
REMARK  113  A    between atoms: _266  and  _267
REMARK  114  A    between atoms: _270  and  _272
REMARK  115  A    between atoms: _272  and  _273
REMARK  116  A    between atoms: _272  and  _275
REMARK  117  A    between atoms: _275  and  _276
REMARK  118  A    between atoms: _279  and  _281
REMARK  119  A    between atoms: _281  and  _282
REMARK  120  A    between atoms: _281  and  _284
REMARK  121  A    between atoms: _284  and  _285
REMARK  122  A    between atoms: _288  and  _290
REMARK  123  A    between atoms: _290  and  _291
REMARK  124  A    between atoms: _290  and  _293
REMARK  125  A    between atoms: _293  and  _294
REMARK  126  A    between atoms: _297  and  _299
REMARK  127  A    between atoms: _299  and  _300
REMARK  128  A    between atoms: _299  and  _302
REMARK  129  A    between atoms: _302  and  _303
REMARK  130  A    between atoms: _308  and  _310
REMARK  131  A    between atoms: _310  and  _311
REMARK  132  A    between atoms: _310  and  _313
REMARK  133  A    between atoms: _316  and  _318
REMARK  134  A    between atoms: _318  and  _319
REMARK  135  A    between atoms: _318  and  _321
REMARK  136  A    between atoms: _321  and  _322
REMARK  137  A    between atoms: _325  and  _327
REMARK  138  A    between atoms: _327  and  _328
REMARK  139  A    between atoms: _327  and  _330
REMARK  140  A    between atoms: _330  and  _331
REMARK  141  A    between atoms: _333  and  _335
REMARK  142  A    between atoms: _335  and  _336
REMARK  143  A    between atoms: _335  and  _338
REMARK  144  A    between atoms: _338  and  _339
REMARK  145  A    between atoms: _342  and  _344
REMARK  146  A    between atoms: _344  and  _345
REMARK  147  A    between atoms: _344  and  _347
REMARK  148  A    between atoms: _347  and  _348
REMARK  149  A    between atoms: _351  and  _353
REMARK  150  A    between atoms: _353  and  _354
REMARK  151  A    between atoms: _353  and  _356
REMARK  152  A    between atoms: _356  and  _357
REMARK  153  A    between atoms: _360  and  _362
REMARK  154  A    between atoms: _362  and  _363
REMARK  155  A    between atoms: _362  and  _365
REMARK  156  A    between atoms: _365  and  _366
REMARK  157  A    between atoms: _372  and  _374
REMARK  158  A    between atoms: _374  and  _375
REMARK  159  A    between atoms: _374  and  _377
REMARK  160  A    between atoms: _377  and  _378
REMARK  161  A    between atoms: _381  and  _383
REMARK  162  A    between atoms: _383  and  _384
REMARK  163  A    between atoms: _383  and  _386
REMARK  164  A    between atoms: _386  and  _387
REMARK  165  A    between atoms: _392  and  _393
REMARK  166  A    between atoms: _395  and  _397
REMARK  167  A    between atoms: _397  and  _398
REMARK  168  A    between atoms: _401  and  _403
REMARK  169  A    between atoms: _403  and  _404
REMARK  170  A    between atoms: _403  and  _406
REMARK  171  A    between atoms: _406  and  _407
REMARK  172  A    between atoms: _407  and  _408
REMARK  173  A    between atoms: _411  and  _413
REMARK  174  A    between atoms: _413  and  _414
REMARK  175  A    between atoms: _413  and  _416
REMARK  176  A    between atoms: _416  and  _417
REMARK  177  A    between atoms: _422  and  _424
REMARK  178  A    between atoms: _424  and  _425
REMARK  179  A    between atoms: _424  and  _427
REMARK  180  A    between atoms: _427  and  _428
REMARK  181  A    between atoms: _431  and  _433
REMARK  182  A    between atoms: _433  and  _434
REMARK  183  A    between atoms: _433  and  _436
REMARK  184  A    between atoms: _436  and  _437
REMARK  185  A    between atoms: _440  and  _442
REMARK  186  A    between atoms: _442  and  _443
REMARK  187  A    between atoms: _442  and  _445
REMARK  188  A    between atoms: _445  and  _446
REMARK  189  A    between atoms: _456  and  _458
REMARK  190  A    between atoms: _458  and  _459
REMARK  191  A    between atoms: _458  and  _461
REMARK  192  A    between atoms: _461  and  _462
REMARK  193  A    between atoms: _467  and  _469
REMARK  194  A    between atoms: _469  and  _470
REMARK  195  A    between atoms: _469  and  _472
REMARK  196  A    between atoms: _472  and  _473
REMARK  197  A    between atoms: _476  and  _478
REMARK  198  A    between atoms: _478  and  _479
REMARK  199  A    between atoms: _478  and  _481
REMARK  200  A    between atoms: _481  and  _482
REMARK  201  A    between atoms: _482  and  _483
REMARK  202  A    between atoms: _483  and  _484
REMARK  203  A    between atoms: _484  and  _485
REMARK  204  A    between atoms: _489  and  _491
REMARK  205  A    between atoms: _491  and  _492
REMARK  206  A    between atoms: _494  and  _496
REMARK  207  A    between atoms: _496  and  _497
REMARK  208  A    between atoms: _496  and  _499
REMARK  209  A    between atoms: _499  and  _500
REMARK  210  A    between atoms: _503  and  _505
REMARK  211  A    between atoms: _505  and  _506
REMARK  212  A    between atoms: _505  and  _508
REMARK  213  A    between atoms: _508  and  _509
REMARK  214  A    between atoms: _514  and  _515
REMARK  215  A    between atoms: _517  and  _519
REMARK  216  A    between atoms: _519  and  _520
REMARK  217  A    between atoms: _519  and  _522
REMARK  218  A    between atoms: _522  and  _523
REMARK  219  A    between atoms: _526  and  _528
REMARK  220  A    between atoms: _528  and  _529
REMARK  221  A    between atoms: _528  and  _531
REMARK  222  A    between atoms: _534  and  _536
REMARK  223  A    between atoms: _536  and  _537
REMARK  224  A    between atoms: _536  and  _539
REMARK  225  A    between atoms: _539  and  _540
REMARK  226  A    between atoms: _543  and  _545
REMARK  227  A    between atoms: _545  and  _546
REMARK  228  A    between atoms: _545  and  _548
REMARK  229  A    between atoms: _548  and  _549
REMARK  230  A    between atoms: _554  and  _556
REMARK  231  A    between atoms: _556  and  _557
REMARK  232  A    between atoms: _556  and  _559
REMARK  233  A    between atoms: _559  and  _560
REMARK  234  A    between atoms: _560  and  _561
REMARK  235  A    between atoms: _561  and  _562
REMARK  236  A    between atoms: _571  and  _573
REMARK  237  A    between atoms: _573  and  _574
REMARK  238  A    between atoms: _573  and  _576
REMARK  239  A    between atoms: _576  and  _577
REMARK  240  A    between atoms: _580  and  _582
REMARK  241  A    between atoms: _582  and  _583
REMARK  242  A    between atoms: _582  and  _585
REMARK  243  A    between atoms: _585  and  _586
REMARK  244  A    between atoms: _589  and  _591
REMARK  245  A    between atoms: _591  and  _592
REMARK  246  A    between atoms: _591  and  _594
REMARK  247  A    between atoms: _594  and  _595
REMARK  248  A    between atoms: _595  and  _596
REMARK  249  A    between atoms: _596  and  _597
REMARK  250  A    between atoms: _597  and  _598
REMARK  251  A    between atoms: _603  and  _604
REMARK  252  A    between atoms: _609  and  _611
REMARK  253  A    between atoms: _611  and  _612
REMARK  254  A    between atoms: _615  and  _617
REMARK  255  A    between atoms: _617  and  _618
REMARK  256  A    between atoms: _617  and  _620
REMARK  257  A    between atoms: _620  and  _621
REMARK  258  A    between atoms: _626  and  _628
REMARK  259  A    between atoms: _628  and  _629
REMARK  260  A    between atoms: _628  and  _631
REMARK  261  A    between atoms: _631  and  _632
REMARK  262  A    between atoms: _635  and  _637
REMARK  263  A    between atoms: _637  and  _638
REMARK  264  A    between atoms: _637  and  _640
REMARK  265  A    between atoms: _640  and  _641
REMARK  266  A    between atoms: _644  and  _646
REMARK  267  A    between atoms: _646  and  _647
REMARK  268  A    between atoms: _646  and  _649
REMARK  269  A    between atoms: _652  and  _654
REMARK  270  A    between atoms: _654  and  _655
REMARK  271  A    between atoms: _654  and  _657
REMARK  272  A    between atoms: _657  and  _658
REMARK  273  A    between atoms: _658  and  _659
REMARK  274  A    between atoms: _659  and  _660
REMARK  275  A    between atoms: _660  and  _661
REMARK  276  A    between atoms: _665  and  _667
REMARK  277  A    between atoms: _667  and  _668
REMARK  278  A    between atoms: _667  and  _670
REMARK  279  A    between atoms: _670  and  _671
REMARK  280  A    between atoms: _674  and  _676
REMARK  281  A    between atoms: _676  and  _677
REMARK  282  A    between atoms: _680  and  _682
REMARK  283  A    between atoms: _682  and  _683
REMARK  284  A    between atoms: _682  and  _685
REMARK  285  A    between atoms: _685  and  _686
REMARK  286  A    between atoms: _689  and  _691
REMARK  287  A    between atoms: _691  and  _692
REMARK  288  A    between atoms: _691  and  _694
REMARK  289  A    between atoms: _694  and  _695
REMARK  290  A    between atoms: _695  and  _696
REMARK  291  A    between atoms: _698  and  _700
REMARK  292  A    between atoms: _700  and  _701
REMARK  293  A    between atoms: _703  and  _705
REMARK  294  A    between atoms: _705  and  _706
REMARK  295  A    between atoms: _705  and  _708
REMARK  296  A    between atoms: _708  and  _709
REMARK  297  A    between atoms: _715  and  _717
REMARK  298  A    between atoms: _717  and  _718
REMARK  299  A    between atoms: _721  and  _723
REMARK  300  A    between atoms: _723  and  _724
REMARK  301  A    between atoms: _723  and  _726
REMARK  302  A    between atoms: _726  and  _727
REMARK  303  A    between atoms: _727  and  _728
REMARK  304  A    between atoms: _728  and  _729
REMARK  305  A    between atoms: _738  and  _740
REMARK  306  A    between atoms: _740  and  _741
REMARK  307  A    between atoms: _740  and  _743
REMARK  308  A    between atoms: _743  and  _744
REMARK  309  A    between atoms: _744  and  _745
REMARK                            x       y       z     vdW  Elec       q    Type
REMARK                         _______ _______ _______ _____ _____    ______ ____
ROOT
ATOM      1  O   HOH     1      34.087  53.937 151.135  0.00  0.00    +0.000 OA
ENDROOT
TORSDOF 0
REMARK  Name = ../refined-set-2016/4f6w/4f6w_pocket.pdb
REMARK  309 active torsions:
REMARK  status: ('A' for Active; 'I' for Inactive)
REMARK    1  A    between atoms: _1  and  _3
REMARK    2  A    between atoms: _3  and  _4
REMARK    3  A    between atoms: _3  and  _6
REMARK    4  A    between atoms: _8  and  _10
REMARK    5  A    between atoms: _10  and  _11
REMARK    6  A    between atoms: _10  and  _13
REMARK    7  A    between atoms: _13  and  _14
REMARK    8  A    between atoms: _14  and  _15
REMARK    9  A    between atoms: _15  and  _16
REMARK   10  A    between atoms: _16  and  _17
REMARK   11  A    between atoms: _21  and  _23
REMARK   12  A    between atoms: _23  and  _24
REMARK   13  A    between atoms: _23  and  _26
REMARK   14  A    between atoms: _29  and  _31
REMARK   15  A    between atoms: _31  and  _32
REMARK   16  A    between atoms: _34  and  _36
REMARK   17  A    between atoms: _36  and  _37
REMARK   18  A    between atoms: _36  and  _39
REMARK   19  A    between atoms: _39  and  _40
REMARK   20  A    between atoms: _40  and  _41
REMARK   21  A    between atoms: _41  and  _42
REMARK   22  A    between atoms: _51  and  _53
REMARK   23  A    between atoms: _53  and  _54
REMARK   24  A    between atoms: _56  and  _58
REMARK   25  A    between atoms: _58  and  _59
REMARK   26  A    between atoms: _58  and  _61
REMARK   27  A    between atoms: _61  and  _62
REMARK   28  A    between atoms: _67  and  _68
REMARK   29  A    between atoms: _70  and  _72
REMARK   30  A    between atoms: _72  and  _73
REMARK   31  A    between atoms: _75  and  _77
REMARK   32  A    between atoms: _77  and  _78
REMARK   33  A    between atoms: _77  and  _80
REMARK   34  A    between atoms: _80  and  _81
REMARK   35  A    between atoms: _86  and  _88
REMARK   36  A    between atoms: _88  and  _89
REMARK   37  A    between atoms: _88  and  _91
REMARK   38  A    between atoms: _94  and  _96
REMARK   39  A    between atoms: _96  and  _97
REMARK   40  A    between atoms: _96  and  _99
REMARK   41  A    between atoms: _99  and  _100
REMARK   42  A    between atoms: _105  and  _106
REMARK   43  A    between atoms: _108  and  _110
REMARK   44  A    between atoms: _110  and  _111
REMARK   45  A    between atoms: _110  and  _113
REMARK   46  A    between atoms: _113  and  _114
REMARK   47  A    between atoms: _114  and  _115
REMARK   48  A    between atoms: _115  and  _116
REMARK   49  A    between atoms: _116  and  _117
REMARK   50  A    between atoms: _121  and  _123
REMARK   51  A    between atoms: _123  and  _124
REMARK   52  A    between atoms: _127  and  _129
REMARK   53  A    between atoms: _129  and  _130
REMARK   54  A    between atoms: _129  and  _132
REMARK   55  A    between atoms: _132  and  _133
REMARK   56  A    between atoms: _138  and  _139
REMARK   57  A    between atoms: _141  and  _143
REMARK   58  A    between atoms: _143  and  _144
REMARK   59  A    between atoms: _147  and  _149
REMARK   60  A    between atoms: _149  and  _150
REMARK   61  A    between atoms: _149  and  _152
REMARK   62  A    between atoms: _152  and  _153
REMARK   63  A    between atoms: _156  and  _158
REMARK   64  A    between atoms: _158  and  _159
REMARK   65  A    between atoms: _158  and  _161
REMARK   66  A    between atoms: _161  and  _162
REMARK   67  A    between atoms: _162  and  _163
REMARK   68  A    between atoms: _163  and  _164
REMARK   69  A    between atoms: _164  and  _165
REMARK   70  A    between atoms: _169  and  _171
REMARK   71  A    between atoms: _171  and  _172
REMARK   72  A    between atoms: _171  and  _174
REMARK   73  A    between atoms: _174  and  _175
REMARK   74  A    between atoms: _175  and  _176
REMARK   75  A    between atoms: _181  and  _183
REMARK   76  A    between atoms: _183  and  _184
REMARK   77  A    between atoms: _183  and  _186
REMARK   78  A    between atoms: _186  and  _187
REMARK   79  A    between atoms: _190  and  _192
REMARK   80  A    between atoms: _192  and  _193
REMARK   81  A    between atoms: _192  and  _195
REMARK   82  A    between atoms: _195  and  _196
REMARK   83  A    between atoms: _198  and  _200
REMARK   84  A    between atoms: _200  and  _201
REMARK   85  A    between atoms: _200  and  _203
REMARK   86  A    between atoms: _203  and  _204
REMARK   87  A    between atoms: _204  and  _205
REMARK   88  A    between atoms: _207  and  _209
REMARK   89  A    between atoms: _209  and  _210
REMARK   90  A    between atoms: _209  and  _212
REMARK   91  A    between atoms: _212  and  _213
REMARK   92  A    between atoms: _215  and  _217
REMARK   93  A    between atoms: _217  and  _218
REMARK   94  A    between atoms: _221  and  _223
REMARK   95  A    between atoms: _223  and  _224
REMARK   96  A    between atoms: _223  and  _226
REMARK   97  A    between atoms: _228  and  _230
REMARK   98  A    between atoms: _230  and  _231
REMARK   99  A    between atoms: _230  and  _233
REMARK  100  A    between atoms: _233  and  _234
REMARK  101  A    between atoms: _234  and  _235
REMARK  102  A    between atoms: _235  and  _236
REMARK  103  A    between atoms: _245  and  _247
REMARK  104  A    between atoms: _247  and  _248
REMARK  105  A    between atoms: _247  and  _250
REMARK  106  A    between atoms: _250  and  _251
REMARK  107  A    between atoms: _251  and  _252
REMARK  108  A    between atoms: _255  and  _257
REMARK  109  A    between atoms: _257  and  _258
REMARK  110  A    between atoms: _257  and  _260
REMARK  111  A    between atoms: _260  and  _261
REMARK  112  A    between atoms: _264  and  _266
REMARK  113  A    between atoms: _266  and  _267
REMARK  114  A    between atoms: _270  and  _272
REMARK  115  A    between atoms: _272  and  _273
REMARK  116  A    between atoms: _272  and  _275
REMARK  117  A    between atoms: _275  and  _276
REMARK  118  A    between atoms: _279  and  _281
REMARK  119  A    between atoms: _281  and  _282
REMARK  120  A    between atoms: _281  and  _284
REMARK  121  A    between atoms: _284  and  _285
REMARK  122  A    between atoms: _288  and  _290
REMARK  123  A    between atoms: _290  and  _291
REMARK  124  A    between atoms: _290  and  _293
REMARK  125  A    between atoms: _293  and  _294
REMARK  126  A    between atoms: _297  and  _299
REMARK  127  A    between atoms: _299  and  _300
REMARK  128  A    between atoms: _299  and  _302
REMARK  129  A    between atoms: _302  and  _303
REMARK  130  A    between atoms: _308  and  _310
REMARK  131  A    between atoms: _310  and  _311
REMARK  132  A    between atoms: _310  and  _313
REMARK  133  A    between atoms: _316  and  _318
REMARK  134  A    between atoms: _318  and  _319
REMARK  135  A    between atoms: _318  and  _321
REMARK  136  A    between atoms: _321  and  _322
REMARK  137  A    between atoms: _325  and  _327
REMARK  138  A    between atoms: _327  and  _328
REMARK  139  A    between atoms: _327  and  _330
REMARK  140  A    between atoms: _330  and  _331
REMARK  141  A    between atoms: _333  and  _335
REMARK  142  A    between atoms: _335  and  _336
REMARK  143  A    between atoms: _335  and  _338
REMARK  144  A    between atoms: _338  and  _339
REMARK  145  A    between atoms: _342  and  _344
REMARK  146  A    between atoms: _344  and  _345
REMARK  147  A    between atoms: _344  and  _347
REMARK  148  A    between atoms: _347  and  _348
REMARK  149  A    between atoms: _351  and  _353
REMARK  150  A    between atoms: _353  and  _354
REMARK  151  A    between atoms: _353  and  _356
REMARK  152  A    between atoms: _356  and  _357
REMARK  153  A    between atoms: _360  and  _362
REMARK  154  A    between atoms: _362  and  _363
REMARK  155  A    between atoms: _362  and  _365
REMARK  156  A    between atoms: _365  and  _366
REMARK  157  A    between atoms: _372  and  _374
REMARK  158  A    between atoms: _374  and  _375
REMARK  159  A    between atoms: _374  and  _377
REMARK  160  A    between atoms: _377  and  _378
REMARK  161  A    between atoms: _381  and  _383
REMARK  162  A    between atoms: _383  and  _384
REMARK  163  A    between atoms: _383  and  _386
REMARK  164  A    between atoms: _386  and  _387
REMARK  165  A    between atoms: _392  and  _393
REMARK  166  A    between atoms: _395  and  _397
REMARK  167  A    between atoms: _397  and  _398
REMARK  168  A    between atoms: _401  and  _403
REMARK  169  A    between atoms: _403  and  _404
REMARK  170  A    between atoms: _403  and  _406
REMARK  171  A    between atoms: _406  and  _407
REMARK  172  A    between atoms: _407  and  _408
REMARK  173  A    between atoms: _411  and  _413
REMARK  174  A    between atoms: _413  and  _414
REMARK  175  A    between atoms: _413  and  _416
REMARK  176  A    between atoms: _416  and  _417
REMARK  177  A    between atoms: _422  and  _424
REMARK  178  A    between atoms: _424  and  _425
REMARK  179  A    between atoms: _424  and  _427
REMARK  180  A    between atoms: _427  and  _428
REMARK  181  A    between atoms: _431  and  _433
REMARK  182  A    between atoms: _433  and  _434
REMARK  183  A    between atoms: _433  and  _436
REMARK  184  A    between atoms: _436  and  _437
REMARK  185  A    between atoms: _440  and  _442
REMARK  186  A    between atoms: _442  and  _443
REMARK  187  A    between atoms: _442  and  _445
REMARK  188  A    between atoms: _445  and  _446
REMARK  189  A    between atoms: _456  and  _458
REMARK  190  A    between atoms: _458  and  _459
REMARK  191  A    between atoms: _458  and  _461
REMARK  192  A    between atoms: _461  and  _462
REMARK  193  A    between atoms: _467  and  _469
REMARK  194  A    between atoms: _469  and  _470
REMARK  195  A    between atoms: _469  and  _472
REMARK  196  A    between atoms: _472  and  _473
REMARK  197  A    between atoms: _476  and  _478
REMARK  198  A    between atoms: _478  and  _479
REMARK  199  A    between atoms: _478  and  _481
REMARK  200  A    between atoms: _481  and  _482
REMARK  201  A    between atoms: _482  and  _483
REMARK  202  A    between atoms: _483  and  _484
REMARK  203  A    between atoms: _484  and  _485
REMARK  204  A    between atoms: _489  and  _491
REMARK  205  A    between atoms: _491  and  _492
REMARK  206  A    between atoms: _494  and  _496
REMARK  207  A    between atoms: _496  and  _497
REMARK  208  A    between atoms: _496  and  _499
REMARK  209  A    between atoms: _499  and  _500
REMARK  210  A    between atoms: _503  and  _505
REMARK  211  A    between atoms: _505  and  _506
REMARK  212  A    between atoms: _505  and  _508
REMARK  213  A    between atoms: _508  and  _509
REMARK  214  A    between atoms: _514  and  _515
REMARK  215  A    between atoms: _517  and  _519
REMARK  216  A    between atoms: _519  and  _520
REMARK  217  A    between atoms: _519  and  _522
REMARK  218  A    between atoms: _522  and  _523
REMARK  219  A    between atoms: _526  and  _528
REMARK  220  A    between atoms: _528  and  _529
REMARK  221  A    between atoms: _528  and  _531
REMARK  222  A    between atoms: _534  and  _536
REMARK  223  A    between atoms: _536  and  _537
REMARK  224  A    between atoms: _536  and  _539
REMARK  225  A    between atoms: _539  and  _540
REMARK  226  A    between atoms: _543  and  _545
REMARK  227  A    between atoms: _545  and  _546
REMARK  228  A    between atoms: _545  and  _548
REMARK  229  A    between atoms: _548  and  _549
REMARK  230  A    between atoms: _554  and  _556
REMARK  231  A    between atoms: _556  and  _557
REMARK  232  A    between atoms: _556  and  _559
REMARK  233  A    between atoms: _559  and  _560
REMARK  234  A    between atoms: _560  and  _561
REMARK  235  A    between atoms: _561  and  _562
REMARK  236  A    between atoms: _571  and  _573
REMARK  237  A    between atoms: _573  and  _574
REMARK  238  A    between atoms: _573  and  _576
REMARK  239  A    between atoms: _576  and  _577
REMARK  240  A    between atoms: _580  and  _582
REMARK  241  A    between atoms: _582  and  _583
REMARK  242  A    between atoms: _582  and  _585
REMARK  243  A    between atoms: _585  and  _586
REMARK  244  A    between atoms: _589  and  _591
REMARK  245  A    between atoms: _591  and  _592
REMARK  246  A    between atoms: _591  and  _594
REMARK  247  A    between atoms: _594  and  _595
REMARK  248  A    between atoms: _595  and  _596
REMARK  249  A    between atoms: _596  and  _597
REMARK  250  A    between atoms: _597  and  _598
REMARK  251  A    between atoms: _603  and  _604
REMARK  252  A    between atoms: _609  and  _611
REMARK  253  A    between atoms: _611  and  _612
REMARK  254  A    between atoms: _615  and  _617
REMARK  255  A    between atoms: _617  and  _618
REMARK  256  A    between atoms: _617  and  _620
REMARK  257  A    between atoms: _620  and  _621
REMARK  258  A    between atoms: _626  and  _628
REMARK  259  A    between atoms: _628  and  _629
REMARK  260  A    between atoms: _628  and  _631
REMARK  261  A    between atoms: _631  and  _632
REMARK  262  A    between atoms: _635  and  _637
REMARK  263  A    between atoms: _637  and  _638
REMARK  264  A    between atoms: _637  and  _640
REMARK  265  A    between atoms: _640  and  _641
REMARK  266  A    between atoms: _644  and  _646
REMARK  267  A    between atoms: _646  and  _647
REMARK  268  A    between atoms: _646  and  _649
REMARK  269  A    between atoms: _652  and  _654
REMARK  270  A    between atoms: _654  and  _655
REMARK  271  A    between atoms: _654  and  _657
REMARK  272  A    between atoms: _657  and  _658
REMARK  273  A    between atoms: _658  and  _659
REMARK  274  A    between atoms: _659  and  _660
REMARK  275  A    between atoms: _660  and  _661
REMARK  276  A    between atoms: _665  and  _667
REMARK  277  A    between atoms: _667  and  _668
REMARK  278  A    between atoms: _667  and  _670
REMARK  279  A    between atoms: _670  and  _671
REMARK  280  A    between atoms: _674  and  _676
REMARK  281  A    between atoms: _676  and  _677
REMARK  282  A    between atoms: _680  and  _682
REMARK  283  A    between atoms: _682  and  _683
REMARK  284  A    between atoms: _682  and  _685
REMARK  285  A    between atoms: _685  and  _686
REMARK  286  A    between atoms: _689  and  _691
REMARK  287  A    between atoms: _691  and  _692
REMARK  288  A    between atoms: _691  and  _694
REMARK  289  A    between atoms: _694  and  _695
REMARK  290  A    between atoms: _695  and  _696
REMARK  291  A    between atoms: _698  and  _700
REMARK  292  A    between atoms: _700  and  _701
REMARK  293  A    between atoms: _703  and  _705
REMARK  294  A    between atoms: _705  and  _706
REMARK  295  A    between atoms: _705  and  _708
REMARK  296  A    between atoms: _708  and  _709
REMARK  297  A    between atoms: _715  and  _717
REMARK  298  A    between atoms: _717  and  _718
REMARK  299  A    between atoms: _721  and  _723
REMARK  300  A    between atoms: _723  and  _724
REMARK  301  A    between atoms: _723  and  _726
REMARK  302  A    between atoms: _726  and  _727
REMARK  303  A    between atoms: _727  and  _728
REMARK  304  A    between atoms: _728  and  _729
REMARK  305  A    between atoms: _738  and  _740
REMARK  306  A    between atoms: _740  and  _741
REMARK  307  A    between atoms: _740  and  _743
REMARK  308  A    between atoms: _743  and  _744
REMARK  309  A    between atoms: _744  and  _745
REMARK                            x       y       z     vdW  Elec       q    Type
REMARK                         _______ _______ _______ _____ _____    ______ ____
ROOT
ATOM      1  O   HOH     1      45.863  56.052 132.048  0.00  0.00    +0.000 OA
ENDROOT
TORSDOF 0
REMARK  Name = ../refined-set-2016/4f6w/4f6w_pocket.pdb
REMARK  309 active torsions:
REMARK  status: ('A' for Active; 'I' for Inactive)
REMARK    1  A    between atoms: _1  and  _3
REMARK    2  A    between atoms: _3  and  _4
REMARK    3  A    between atoms: _3  and  _6
REMARK    4  A    between atoms: _8  and  _10
REMARK    5  A    between atoms: _10  and  _11
REMARK    6  A    between atoms: _10  and  _13
REMARK    7  A    between atoms: _13  and  _14
REMARK    8  A    between atoms: _14  and  _15
REMARK    9  A    between atoms: _15  and  _16
REMARK   10  A    between atoms: _16  and  _17
REMARK   11  A    between atoms: _21  and  _23
REMARK   12  A    between atoms: _23  and  _24
REMARK   13  A    between atoms: _23  and  _26
REMARK   14  A    between atoms: _29  and  _31
REMARK   15  A    between atoms: _31  and  _32
REMARK   16  A    between atoms: _34  and  _36
REMARK   17  A    between atoms: _36  and  _37
REMARK   18  A    between atoms: _36  and  _39
REMARK   19  A    between atoms: _39  and  _40
REMARK   20  A    between atoms: _40  and  _41
REMARK   21  A    between atoms: _41  and  _42
REMARK   22  A    between atoms: _51  and  _53
REMARK   23  A    between atoms: _53  and  _54
REMARK   24  A    between atoms: _56  and  _58
REMARK   25  A    between atoms: _58  and  _59
REMARK   26  A    between atoms: _58  and  _61
REMARK   27  A    between atoms: _61  and  _62
REMARK   28  A    between atoms: _67  and  _68
REMARK   29  A    between atoms: _70  and  _72
REMARK   30  A    between atoms: _72  and  _73
REMARK   31  A    between atoms: _75  and  _77
REMARK   32  A    between atoms: _77  and  _78
REMARK   33  A    between atoms: _77  and  _80
REMARK   34  A    between atoms: _80  and  _81
REMARK   35  A    between atoms: _86  and  _88
REMARK   36  A    between atoms: _88  and  _89
REMARK   37  A    between atoms: _88  and  _91
REMARK   38  A    between atoms: _94  and  _96
REMARK   39  A    between atoms: _96  and  _97
REMARK   40  A    between atoms: _96  and  _99
REMARK   41  A    between atoms: _99  and  _100
REMARK   42  A    between atoms: _105  and  _106
REMARK   43  A    between atoms: _108  and  _110
REMARK   44  A    between atoms: _110  and  _111
REMARK   45  A    between atoms: _110  and  _113
REMARK   46  A    between atoms: _113  and  _114
REMARK   47  A    between atoms: _114  and  _115
REMARK   48  A    between atoms: _115  and  _116
REMARK   49  A    between atoms: _116  and  _117
REMARK   50  A    between atoms: _121  and  _123
REMARK   51  A    between atoms: _123  and  _124
REMARK   52  A    between atoms: _127  and  _129
REMARK   53  A    between atoms: _129  and  _130
REMARK   54  A    between atoms: _129  and  _132
REMARK   55  A    between atoms: _132  and  _133
REMARK   56  A    between atoms: _138  and  _139
REMARK   57  A    between atoms: _141  and  _143
REMARK   58  A    between atoms: _143  and  _144
REMARK   59  A    between atoms: _147  and  _149
REMARK   60  A    between atoms: _149  and  _150
REMARK   61  A    between atoms: _149  and  _152
REMARK   62  A    between atoms: _152  and  _153
REMARK   63  A    between atoms: _156  and  _158
REMARK   64  A    between atoms: _158  and  _159
REMARK   65  A    between atoms: _158  and  _161
REMARK   66  A    between atoms: _161  and  _162
REMARK   67  A    between atoms: _162  and  _163
REMARK   68  A    between atoms: _163  and  _164
REMARK   69  A    between atoms: _164  and  _165
REMARK   70  A    between atoms: _169  and  _171
REMARK   71  A    between atoms: _171  and  _172
REMARK   72  A    between atoms: _171  and  _174
REMARK   73  A    between atoms: _174  and  _175
REMARK   74  A    between atoms: _175  and  _176
REMARK   75  A    between atoms: _181  and  _183
REMARK   76  A    between atoms: _183  and  _184
REMARK   77  A    between atoms: _183  and  _186
REMARK   78  A    between atoms: _186  and  _187
REMARK   79  A    between atoms: _190  and  _192
REMARK   80  A    between atoms: _192  and  _193
REMARK   81  A    between atoms: _192  and  _195
REMARK   82  A    between atoms: _195  and  _196
REMARK   83  A    between atoms: _198  and  _200
REMARK   84  A    between atoms: _200  and  _201
REMARK   85  A    between atoms: _200  and  _203
REMARK   86  A    between atoms: _203  and  _204
REMARK   87  A    between atoms: _204  and  _205
REMARK   88  A    between atoms: _207  and  _209
REMARK   89  A    between atoms: _209  and  _210
REMARK   90  A    between atoms: _209  and  _212
REMARK   91  A    between atoms: _212  and  _213
REMARK   92  A    between atoms: _215  and  _217
REMARK   93  A    between atoms: _217  and  _218
REMARK   94  A    between atoms: _221  and  _223
REMARK   95  A    between atoms: _223  and  _224
REMARK   96  A    between atoms: _223  and  _226
REMARK   97  A    between atoms: _228  and  _230
REMARK   98  A    between atoms: _230  and  _231
REMARK   99  A    between atoms: _230  and  _233
REMARK  100  A    between atoms: _233  and  _234
REMARK  101  A    between atoms: _234  and  _235
REMARK  102  A    between atoms: _235  and  _236
REMARK  103  A    between atoms: _245  and  _247
REMARK  104  A    between atoms: _247  and  _248
REMARK  105  A    between atoms: _247  and  _250
REMARK  106  A    between atoms: _250  and  _251
REMARK  107  A    between atoms: _251  and  _252
REMARK  108  A    between atoms: _255  and  _257
REMARK  109  A    between atoms: _257  and  _258
REMARK  110  A    between atoms: _257  and  _260
REMARK  111  A    between atoms: _260  and  _261
REMARK  112  A    between atoms: _264  and  _266
REMARK  113  A    between atoms: _266  and  _267
REMARK  114  A    between atoms: _270  and  _272
REMARK  115  A    between atoms: _272  and  _273
REMARK  116  A    between atoms: _272  and  _275
REMARK  117  A    between atoms: _275  and  _276
REMARK  118  A    between atoms: _279  and  _281
REMARK  119  A    between atoms: _281  and  _282
REMARK  120  A    between atoms: _281  and  _284
REMARK  121  A    between atoms: _284  and  _285
REMARK  122  A    between atoms: _288  and  _290
REMARK  123  A    between atoms: _290  and  _291
REMARK  124  A    between atoms: _290  and  _293
REMARK  125  A    between atoms: _293  and  _294
REMARK  126  A    between atoms: _297  and  _299
REMARK  127  A    between atoms: _299  and  _300
REMARK  128  A    between atoms: _299  and  _302
REMARK  129  A    between atoms: _302  and  _303
REMARK  130  A    between atoms: _308  and  _310
REMARK  131  A    between atoms: _310  and  _311
REMARK  132  A    between atoms: _310  and  _313
REMARK  133  A    between atoms: _316  and  _318
REMARK  134  A    between atoms: _318  and  _319
REMARK  135  A    between atoms: _318  and  _321
REMARK  136  A    between atoms: _321  and  _322
REMARK  137  A    between atoms: _325  and  _327
REMARK  138  A    between atoms: _327  and  _328
REMARK  139  A    between atoms: _327  and  _330
REMARK  140  A    between atoms: _330  and  _331
REMARK  141  A    between atoms: _333  and  _335
REMARK  142  A    between atoms: _335  and  _336
REMARK  143  A    between atoms: _335  and  _338
REMARK  144  A    between atoms: _338  and  _339
REMARK  145  A    between atoms: _342  and  _344
REMARK  146  A    between atoms: _344  and  _345
REMARK  147  A    between atoms: _344  and  _347
REMARK  148  A    between atoms: _347  and  _348
REMARK  149  A    between atoms: _351  and  _353
REMARK  150  A    between atoms: _353  and  _354
REMARK  151  A    between atoms: _353  and  _356
REMARK  152  A    between atoms: _356  and  _357
REMARK  153  A    between atoms: _360  and  _362
REMARK  154  A    between atoms: _362  and  _363
REMARK  155  A    between atoms: _362  and  _365
REMARK  156  A    between atoms: _365  and  _366
REMARK  157  A    between atoms: _372  and  _374
REMARK  158  A    between atoms: _374  and  _375
REMARK  159  A    between atoms: _374  and  _377
REMARK  160  A    between atoms: _377  and  _378
REMARK  161  A    between atoms: _381  and  _383
REMARK  162  A    between atoms: _383  and  _384
REMARK  163  A    between atoms: _383  and  _386
REMARK  164  A    between atoms: _386  and  _387
REMARK  165  A    between atoms: _392  and  _393
REMARK  166  A    between atoms: _395  and  _397
REMARK  167  A    between atoms: _397  and  _398
REMARK  168  A    between atoms: _401  and  _403
REMARK  169  A    between atoms: _403  and  _404
REMARK  170  A    between atoms: _403  and  _406
REMARK  171  A    between atoms: _406  and  _407
REMARK  172  A    between atoms: _407  and  _408
REMARK  173  A    between atoms: _411  and  _413
REMARK  174  A    between atoms: _413  and  _414
REMARK  175  A    between atoms: _413  and  _416
REMARK  176  A    between atoms: _416  and  _417
REMARK  177  A    between atoms: _422  and  _424
REMARK  178  A    between atoms: _424  and  _425
REMARK  179  A    between atoms: _424  and  _427
REMARK  180  A    between atoms: _427  and  _428
REMARK  181  A    between atoms: _431  and  _433
REMARK  182  A    between atoms: _433  and  _434
REMARK  183  A    between atoms: _433  and  _436
REMARK  184  A    between atoms: _436  and  _437
REMARK  185  A    between atoms: _440  and  _442
REMARK  186  A    between atoms: _442  and  _443
REMARK  187  A    between atoms: _442  and  _445
REMARK  188  A    between atoms: _445  and  _446
REMARK  189  A    between atoms: _456  and  _458
REMARK  190  A    between atoms: _458  and  _459
REMARK  191  A    between atoms: _458  and  _461
REMARK  192  A    between atoms: _461  and  _462
REMARK  193  A    between atoms: _467  and  _469
REMARK  194  A    between atoms: _469  and  _470
REMARK  195  A    between atoms: _469  and  _472
REMARK  196  A    between atoms: _472  and  _473
REMARK  197  A    between atoms: _476  and  _478
REMARK  198  A    between atoms: _478  and  _479
REMARK  199  A    between atoms: _478  and  _481
REMARK  200  A    between atoms: _481  and  _482
REMARK  201  A    between atoms: _482  and  _483
REMARK  202  A    between atoms: _483  and  _484
REMARK  203  A    between atoms: _484  and  _485
REMARK  204  A    between atoms: _489  and  _491
REMARK  205  A    between atoms: _491  and  _492
REMARK  206  A    between atoms: _494  and  _496
REMARK  207  A    between atoms: _496  and  _497
REMARK  208  A    between atoms: _496  and  _499
REMARK  209  A    between atoms: _499  and  _500
REMARK  210  A    between atoms: _503  and  _505
REMARK  211  A    between atoms: _505  and  _506
REMARK  212  A    between atoms: _505  and  _508
REMARK  213  A    between atoms: _508  and  _509
REMARK  214  A    between atoms: _514  and  _515
REMARK  215  A    between atoms: _517  and  _519
REMARK  216  A    between atoms: _519  and  _520
REMARK  217  A    between atoms: _519  and  _522
REMARK  218  A    between atoms: _522  and  _523
REMARK  219  A    between atoms: _526  and  _528
REMARK  220  A    between atoms: _528  and  _529
REMARK  221  A    between atoms: _528  and  _531
REMARK  222  A    between atoms: _534  and  _536
REMARK  223  A    between atoms: _536  and  _537
REMARK  224  A    between atoms: _536  and  _539
REMARK  225  A    between atoms: _539  and  _540
REMARK  226  A    between atoms: _543  and  _545
REMARK  227  A    between atoms: _545  and  _546
REMARK  228  A    between atoms: _545  and  _548
REMARK  229  A    between atoms: _548  and  _549
REMARK  230  A    between atoms: _554  and  _556
REMARK  231  A    between atoms: _556  and  _557
REMARK  232  A    between atoms: _556  and  _559
REMARK  233  A    between atoms: _559  and  _560
REMARK  234  A    between atoms: _560  and  _561
REMARK  235  A    between atoms: _561  and  _562
REMARK  236  A    between atoms: _571  and  _573
REMARK  237  A    between atoms: _573  and  _574
REMARK  238  A    between atoms: _573  and  _576
REMARK  239  A    between atoms: _576  and  _577
REMARK  240  A    between atoms: _580  and  _582
REMARK  241  A    between atoms: _582  and  _583
REMARK  242  A    between atoms: _582  and  _585
REMARK  243  A    between atoms: _585  and  _586
REMARK  244  A    between atoms: _589  and  _591
REMARK  245  A    between atoms: _591  and  _592
REMARK  246  A    between atoms: _591  and  _594
REMARK  247  A    between atoms: _594  and  _595
REMARK  248  A    between atoms: _595  and  _596
REMARK  249  A    between atoms: _596  and  _597
REMARK  250  A    between atoms: _597  and  _598
REMARK  251  A    between atoms: _603  and  _604
REMARK  252  A    between atoms: _609  and  _611
REMARK  253  A    between atoms: _611  and  _612
REMARK  254  A    between atoms: _615  and  _617
REMARK  255  A    between atoms: _617  and  _618
REMARK  256  A    between atoms: _617  and  _620
REMARK  257  A    between atoms: _620  and  _621
REMARK  258  A    between atoms: _626  and  _628
REMARK  259  A    between atoms: _628  and  _629
REMARK  260  A    between atoms: _628  and  _631
REMARK  261  A    between atoms: _631  and  _632
REMARK  262  A    between atoms: _635  and  _637
REMARK  263  A    between atoms: _637  and  _638
REMARK  264  A    between atoms: _637  and  _640
REMARK  265  A    between atoms: _640  and  _641
REMARK  266  A    between atoms: _644  and  _646
REMARK  267  A    between atoms: _646  and  _647
REMARK  268  A    between atoms: _646  and  _649
REMARK  269  A    between atoms: _652  and  _654
REMARK  270  A    between atoms: _654  and  _655
REMARK  271  A    between atoms: _654  and  _657
REMARK  272  A    between atoms: _657  and  _658
REMARK  273  A    between atoms: _658  and  _659
REMARK  274  A    between atoms: _659  and  _660
REMARK  275  A    between atoms: _660  and  _661
REMARK  276  A    between atoms: _665  and  _667
REMARK  277  A    between atoms: _667  and  _668
REMARK  278  A    between atoms: _667  and  _670
REMARK  279  A    between atoms: _670  and  _671
REMARK  280  A    between atoms: _674  and  _676
REMARK  281  A    between atoms: _676  and  _677
REMARK  282  A    between atoms: _680  and  _682
REMARK  283  A    between atoms: _682  and  _683
REMARK  284  A    between atoms: _682  and  _685
REMARK  285  A    between atoms: _685  and  _686
REMARK  286  A    between atoms: _689  and  _691
REMARK  287  A    between atoms: _691  and  _692
REMARK  288  A    between atoms: _691  and  _694
REMARK  289  A    between atoms: _694  and  _695
REMARK  290  A    between atoms: _695  and  _696
REMARK  291  A    between atoms: _698  and  _700
REMARK  292  A    between atoms: _700  and  _701
REMARK  293  A    between atoms: _703  and  _705
REMARK  294  A    between atoms: _705  and  _706
REMARK  295  A    between atoms: _705  and  _708
REMARK  296  A    between atoms: _708  and  _709
REMARK  297  A    between atoms: _715  and  _717
REMARK  298  A    between atoms: _717  and  _718
REMARK  299  A    between atoms: _721  and  _723
REMARK  300  A    between atoms: _723  and  _724
REMARK  301  A    between atoms: _723  and  _726
REMARK  302  A    between atoms: _726  and  _727
REMARK  303  A    between atoms: _727  and  _728
REMARK  304  A    between atoms: _728  and  _729
REMARK  305  A    between atoms: _738  and  _740
REMARK  306  A    between atoms: _740  and  _741
REMARK  307  A    between atoms: _740  and  _743
REMARK  308  A    between atoms: _743  and  _744
REMARK  309  A    between atoms: _744  and  _745
REMARK                            x       y       z     vdW  Elec       q    Type
REMARK                         _______ _______ _______ _____ _____    ______ ____
ROOT
ATOM      1  O   HOH     1      41.750  57.255 131.619  0.00  0.00    +0.000 OA
ENDROOT
TORSDOF 0
