REMARK  Name = ../refined-set-2016/4g0p/4g0p_pocket.pdb
REMARK  128 active torsions:
REMARK  status: ('A' for Active; 'I' for Inactive)
REMARK    1  A    between atoms: _1  and  _3
REMARK    2  A    between atoms: _3  and  _4
REMARK    3  A    between atoms: _3  and  _6
REMARK    4  A    between atoms: _6  and  _7
REMARK    5  A    between atoms: _10  and  _12
REMARK    6  A    between atoms: _12  and  _13
REMARK    7  A    between atoms: _12  and  _15
REMARK    8  A    between atoms: _15  and  _16
REMARK    9  A    between atoms: _19  and  _21
REMARK   10  A    between atoms: _21  and  _22
REMARK   11  A    between atoms: _21  and  _24
REMARK   12  A    between atoms: _27  and  _29
REMARK   13  A    between atoms: _29  and  _30
REMARK   14  A    between atoms: _29  and  _32
REMARK   15  A    between atoms: _32  and  _33
REMARK   16  A    between atoms: _37  and  _38
REMARK   17  A    between atoms: _43  and  _45
REMARK   18  A    between atoms: _45  and  _46
REMARK   19  A    between atoms: _45  and  _48
REMARK   20  A    between atoms: _48  and  _49
REMARK   21  A    between atoms: _52  and  _54
REMARK   22  A    between atoms: _54  and  _55
REMARK   23  A    between atoms: _54  and  _57
REMARK   24  A    between atoms: _57  and  _58
REMARK   25  A    between atoms: _63  and  _65
REMARK   26  A    between atoms: _65  and  _66
REMARK   27  A    between atoms: _65  and  _68
REMARK   28  A    between atoms: _68  and  _69
REMARK   29  A    between atoms: _74  and  _76
REMARK   30  A    between atoms: _76  and  _77
REMARK   31  A    between atoms: _79  and  _81
REMARK   32  A    between atoms: _81  and  _82
REMARK   33  A    between atoms: _81  and  _84
REMARK   34  A    between atoms: _84  and  _85
REMARK   35  A    between atoms: _87  and  _89
REMARK   36  A    between atoms: _89  and  _90
REMARK   37  A    between atoms: _89  and  _92
REMARK   38  A    between atoms: _92  and  _93
REMARK   39  A    between atoms: _96  and  _98
REMARK   40  A    between atoms: _98  and  _99
REMARK   41  A    between atoms: _98  and  _101
REMARK   42  A    between atoms: _101  and  _102
REMARK   43  A    between atoms: _107  and  _108
REMARK   44  A    between atoms: _110  and  _112
REMARK   45  A    between atoms: _112  and  _113
REMARK   46  A    between atoms: _115  and  _117
REMARK   47  A    between atoms: _117  and  _118
REMARK   48  A    between atoms: _117  and  _120
REMARK   49  A    between atoms: _120  and  _121
REMARK   50  A    between atoms: _124  and  _126
REMARK   51  A    between atoms: _126  and  _127
REMARK   52  A    between atoms: _126  and  _129
REMARK   53  A    between atoms: _129  and  _130
REMARK   54  A    between atoms: _133  and  _135
REMARK   55  A    between atoms: _135  and  _136
REMARK   56  A    between atoms: _135  and  _138
REMARK   57  A    between atoms: _138  and  _139
REMARK   58  A    between atoms: _139  and  _140
REMARK   59  A    between atoms: _140  and  _141
REMARK   60  A    between atoms: _141  and  _142
REMARK   61  A    between atoms: _146  and  _148
REMARK   62  A    between atoms: _148  and  _149
REMARK   63  A    between atoms: _148  and  _151
REMARK   64  A    between atoms: _151  and  _152
REMARK   65  A    between atoms: _152  and  _153
REMARK   66  A    between atoms: _156  and  _158
REMARK   67  A    between atoms: _158  and  _159
REMARK   68  A    between atoms: _158  and  _161
REMARK   69  A    between atoms: _164  and  _166
REMARK   70  A    between atoms: _166  and  _167
REMARK   71  A    between atoms: _166  and  _169
REMARK   72  A    between atoms: _169  and  _170
REMARK   73  A    between atoms: _172  and  _174
REMARK   74  A    between atoms: _174  and  _175
REMARK   75  A    between atoms: _174  and  _177
REMARK   76  A    between atoms: _177  and  _178
REMARK   77  A    between atoms: _178  and  _179
REMARK   78  A    between atoms: _184  and  _186
REMARK   79  A    between atoms: _186  and  _187
REMARK   80  A    between atoms: _186  and  _189
REMARK   81  A    between atoms: _191  and  _193
REMARK   82  A    between atoms: _193  and  _194
REMARK   83  A    between atoms: _193  and  _196
REMARK   84  A    between atoms: _198  and  _200
REMARK   85  A    between atoms: _200  and  _201
REMARK   86  A    between atoms: _200  and  _203
REMARK   87  A    between atoms: _203  and  _204
REMARK   88  A    between atoms: _207  and  _209
REMARK   89  A    between atoms: _209  and  _210
REMARK   90  A    between atoms: _209  and  _212
REMARK   91  A    between atoms: _212  and  _213
REMARK   92  A    between atoms: _216  and  _218
REMARK   93  A    between atoms: _218  and  _219
REMARK   94  A    between atoms: _218  and  _221
REMARK   95  A    between atoms: _221  and  _222
REMARK   96  A    between atoms: _222  and  _223
REMARK   97  A    between atoms: _223  and  _224
REMARK   98  A    between atoms: _224  and  _225
REMARK   99  A    between atoms: _229  and  _231
REMARK  100  A    between atoms: _231  and  _232
REMARK  101  A    between atoms: _231  and  _234
REMARK  102  A    between atoms: _234  and  _235
REMARK  103  A    between atoms: _240  and  _242
REMARK  104  A    between atoms: _242  and  _243
REMARK  105  A    between atoms: _242  and  _245
REMARK  106  A    between atoms: _245  and  _246
REMARK  107  A    between atoms: _251  and  _252
REMARK  108  A    between atoms: _254  and  _256
REMARK  109  A    between atoms: _256  and  _257
REMARK  110  A    between atoms: _256  and  _259
REMARK  111  A    between atoms: _262  and  _264
REMARK  112  A    between atoms: _264  and  _265
REMARK  113  A    between atoms: _264  and  _267
REMARK  114  A    between atoms: _267  and  _268
REMARK  115  A    between atoms: _268  and  _269
REMARK  116  A    between atoms: _269  and  _270
REMARK  117  A    between atoms: _270  and  _271
REMARK  118  A    between atoms: _275  and  _277
REMARK  119  A    between atoms: _277  and  _278
REMARK  120  A    between atoms: _277  and  _280
REMARK  121  A    between atoms: _280  and  _281
REMARK  122  A    between atoms: _284  and  _286
REMARK  123  A    between atoms: _286  and  _287
REMARK  124  A    between atoms: _286  and  _289
REMARK  125  A    between atoms: _289  and  _290
REMARK  126  A    between atoms: _290  and  _291
REMARK  127  A    between atoms: _291  and  _292
REMARK  128  A    between atoms: _292  and  _293
REMARK                            x       y       z     vdW  Elec       q    Type
REMARK                         _______ _______ _______ _____ _____    ______ ____
ROOT
ATOM      1  C   LEU A   1      14.866  37.147  42.807  0.00  0.00    +0.238 C 
ATOM      2  O   LEU A   1      14.149  36.912  43.779  0.00  0.00    -0.274 OA
ATOM      3  N   LEU A   2      15.455  36.192  42.095  0.00  0.00    -0.298 N 
ATOM      4  H   LEU A   2      15.814  36.428  41.148  0.00  0.00    +0.150 HD
ENDROOT
BRANCH   1   5
ATOM      5  CA  LEU A   1      15.149  38.586  42.373  0.00  0.00    +0.145 C 
BRANCH   5   6
ATOM      6  N   LEU A   1      13.906  39.343  42.282  0.00  0.00    -0.238 NA
ATOM      7  H   LEU A   1      13.077  39.016  42.818  0.00  0.00    +0.142 HD
ENDBRANCH   5   6
BRANCH   5   8
ATOM      8  CB  LEU A   1      16.135  39.263  43.340  0.00  0.00    +0.026 C 
BRANCH   8   9
ATOM      9  CG  LEU A   1      17.478  38.563  43.599  0.00  0.00    +0.002 C 
ATOM     10  CD2 LEU A   1      18.180  39.270  44.754  0.00  0.00    +0.000 C 
ATOM     11  CD1 LEU A   1      18.352  38.515  42.333  0.00  0.00    +0.000 C 
ENDBRANCH   8   9
ENDBRANCH   5   8
ENDBRANCH   1   5
BRANCH   3  12
ATOM     12  CA  LEU A   2      15.621  34.820  42.587  0.00  0.00    +0.137 C 
BRANCH  12  13
ATOM     13  C   LEU A   2      17.081  34.574  42.983  0.00  0.00    +0.227 C 
ATOM     14  O   LEU A   2      17.984  34.736  42.173  0.00  0.00    -0.286 OA
ENDBRANCH  12  13
BRANCH  12  15
ATOM     15  CB  LEU A   2      15.158  33.843  41.509  0.00  0.00    +0.028 C 
BRANCH  15  16
ATOM     16  CG  LEU A   2      15.493  32.367  41.647  0.00  0.00    +0.002 C 
ATOM     17  CD2 LEU A   2      14.750  31.780  42.843  0.00  0.00    +0.000 C 
ATOM     18  CD1 LEU A   2      15.149  31.654  40.318  0.00  0.00    +0.000 C 
ENDBRANCH  15  16
ENDBRANCH  12  15
ENDBRANCH   3  12
TORSDOF 8
REMARK  Name = ../refined-set-2016/4g0p/4g0p_pocket.pdb
REMARK  128 active torsions:
REMARK  status: ('A' for Active; 'I' for Inactive)
REMARK    1  A    between atoms: _1  and  _3
REMARK    2  A    between atoms: _3  and  _4
REMARK    3  A    between atoms: _3  and  _6
REMARK    4  A    between atoms: _6  and  _7
REMARK    5  A    between atoms: _10  and  _12
REMARK    6  A    between atoms: _12  and  _13
REMARK    7  A    between atoms: _12  and  _15
REMARK    8  A    between atoms: _15  and  _16
REMARK    9  A    between atoms: _19  and  _21
REMARK   10  A    between atoms: _21  and  _22
REMARK   11  A    between atoms: _21  and  _24
REMARK   12  A    between atoms: _27  and  _29
REMARK   13  A    between atoms: _29  and  _30
REMARK   14  A    between atoms: _29  and  _32
REMARK   15  A    between atoms: _32  and  _33
REMARK   16  A    between atoms: _37  and  _38
REMARK   17  A    between atoms: _43  and  _45
REMARK   18  A    between atoms: _45  and  _46
REMARK   19  A    between atoms: _45  and  _48
REMARK   20  A    between atoms: _48  and  _49
REMARK   21  A    between atoms: _52  and  _54
REMARK   22  A    between atoms: _54  and  _55
REMARK   23  A    between atoms: _54  and  _57
REMARK   24  A    between atoms: _57  and  _58
REMARK   25  A    between atoms: _63  and  _65
REMARK   26  A    between atoms: _65  and  _66
REMARK   27  A    between atoms: _65  and  _68
REMARK   28  A    between atoms: _68  and  _69
REMARK   29  A    between atoms: _74  and  _76
REMARK   30  A    between atoms: _76  and  _77
REMARK   31  A    between atoms: _79  and  _81
REMARK   32  A    between atoms: _81  and  _82
REMARK   33  A    between atoms: _81  and  _84
REMARK   34  A    between atoms: _84  and  _85
REMARK   35  A    between atoms: _87  and  _89
REMARK   36  A    between atoms: _89  and  _90
REMARK   37  A    between atoms: _89  and  _92
REMARK   38  A    between atoms: _92  and  _93
REMARK   39  A    between atoms: _96  and  _98
REMARK   40  A    between atoms: _98  and  _99
REMARK   41  A    between atoms: _98  and  _101
REMARK   42  A    between atoms: _101  and  _102
REMARK   43  A    between atoms: _107  and  _108
REMARK   44  A    between atoms: _110  and  _112
REMARK   45  A    between atoms: _112  and  _113
REMARK   46  A    between atoms: _115  and  _117
REMARK   47  A    between atoms: _117  and  _118
REMARK   48  A    between atoms: _117  and  _120
REMARK   49  A    between atoms: _120  and  _121
REMARK   50  A    between atoms: _124  and  _126
REMARK   51  A    between atoms: _126  and  _127
REMARK   52  A    between atoms: _126  and  _129
REMARK   53  A    between atoms: _129  and  _130
REMARK   54  A    between atoms: _133  and  _135
REMARK   55  A    between atoms: _135  and  _136
REMARK   56  A    between atoms: _135  and  _138
REMARK   57  A    between atoms: _138  and  _139
REMARK   58  A    between atoms: _139  and  _140
REMARK   59  A    between atoms: _140  and  _141
REMARK   60  A    between atoms: _141  and  _142
REMARK   61  A    between atoms: _146  and  _148
REMARK   62  A    between atoms: _148  and  _149
REMARK   63  A    between atoms: _148  and  _151
REMARK   64  A    between atoms: _151  and  _152
REMARK   65  A    between atoms: _152  and  _153
REMARK   66  A    between atoms: _156  and  _158
REMARK   67  A    between atoms: _158  and  _159
REMARK   68  A    between atoms: _158  and  _161
REMARK   69  A    between atoms: _164  and  _166
REMARK   70  A    between atoms: _166  and  _167
REMARK   71  A    between atoms: _166  and  _169
REMARK   72  A    between atoms: _169  and  _170
REMARK   73  A    between atoms: _172  and  _174
REMARK   74  A    between atoms: _174  and  _175
REMARK   75  A    between atoms: _174  and  _177
REMARK   76  A    between atoms: _177  and  _178
REMARK   77  A    between atoms: _178  and  _179
REMARK   78  A    between atoms: _184  and  _186
REMARK   79  A    between atoms: _186  and  _187
REMARK   80  A    between atoms: _186  and  _189
REMARK   81  A    between atoms: _191  and  _193
REMARK   82  A    between atoms: _193  and  _194
REMARK   83  A    between atoms: _193  and  _196
REMARK   84  A    between atoms: _198  and  _200
REMARK   85  A    between atoms: _200  and  _201
REMARK   86  A    between atoms: _200  and  _203
REMARK   87  A    between atoms: _203  and  _204
REMARK   88  A    between atoms: _207  and  _209
REMARK   89  A    between atoms: _209  and  _210
REMARK   90  A    between atoms: _209  and  _212
REMARK   91  A    between atoms: _212  and  _213
REMARK   92  A    between atoms: _216  and  _218
REMARK   93  A    between atoms: _218  and  _219
REMARK   94  A    between atoms: _218  and  _221
REMARK   95  A    between atoms: _221  and  _222
REMARK   96  A    between atoms: _222  and  _223
REMARK   97  A    between atoms: _223  and  _224
REMARK   98  A    between atoms: _224  and  _225
REMARK   99  A    between atoms: _229  and  _231
REMARK  100  A    between atoms: _231  and  _232
REMARK  101  A    between atoms: _231  and  _234
REMARK  102  A    between atoms: _234  and  _235
REMARK  103  A    between atoms: _240  and  _242
REMARK  104  A    between atoms: _242  and  _243
REMARK  105  A    between atoms: _242  and  _245
REMARK  106  A    between atoms: _245  and  _246
REMARK  107  A    between atoms: _251  and  _252
REMARK  108  A    between atoms: _254  and  _256
REMARK  109  A    between atoms: _256  and  _257
REMARK  110  A    between atoms: _256  and  _259
REMARK  111  A    between atoms: _262  and  _264
REMARK  112  A    between atoms: _264  and  _265
REMARK  113  A    between atoms: _264  and  _267
REMARK  114  A    between atoms: _267  and  _268
REMARK  115  A    between atoms: _268  and  _269
REMARK  116  A    between atoms: _269  and  _270
REMARK  117  A    between atoms: _270  and  _271
REMARK  118  A    between atoms: _275  and  _277
REMARK  119  A    between atoms: _277  and  _278
REMARK  120  A    between atoms: _277  and  _280
REMARK  121  A    between atoms: _280  and  _281
REMARK  122  A    between atoms: _284  and  _286
REMARK  123  A    between atoms: _286  and  _287
REMARK  124  A    between atoms: _286  and  _289
REMARK  125  A    between atoms: _289  and  _290
REMARK  126  A    between atoms: _290  and  _291
REMARK  127  A    between atoms: _291  and  _292
REMARK  128  A    between atoms: _292  and  _293
REMARK                            x       y       z     vdW  Elec       q    Type
REMARK                         _______ _______ _______ _____ _____    ______ ____
ROOT
ATOM      1  CA  VAL A   1      19.627  30.163  43.715  0.00  0.00    +0.133 C 
ENDROOT
BRANCH   1   2
ATOM      2  CB  VAL A   1      19.555  29.717  42.210  0.00  0.00    +0.023 C 
ATOM      3  CG2 VAL A   1      19.478  28.204  42.117  0.00  0.00    +0.002 C 
ATOM      4  CG1 VAL A   1      18.360  30.315  41.521  0.00  0.00    +0.002 C 
ENDBRANCH   1   2
BRANCH   1   5
ATOM      5  N   VAL A   1      19.556  31.615  43.885  0.00  0.00    -0.239 NA
ATOM      6  H   VAL A   1      20.268  32.217  43.423  0.00  0.00    +0.142 HD
ENDBRANCH   1   5
BRANCH   1   7
ATOM      7  C   VAL A   1      20.928  29.671  44.338  0.00  0.00    +0.224 C 
ATOM      8  O   VAL A   1      21.992  30.197  44.039  0.00  0.00    -0.287 OA
ENDBRANCH   1   7
TORSDOF 3
REMARK  Name = ../refined-set-2016/4g0p/4g0p_pocket.pdb
REMARK  128 active torsions:
REMARK  status: ('A' for Active; 'I' for Inactive)
REMARK    1  A    between atoms: _1  and  _3
REMARK    2  A    between atoms: _3  and  _4
REMARK    3  A    between atoms: _3  and  _6
REMARK    4  A    between atoms: _6  and  _7
REMARK    5  A    between atoms: _10  and  _12
REMARK    6  A    between atoms: _12  and  _13
REMARK    7  A    between atoms: _12  and  _15
REMARK    8  A    between atoms: _15  and  _16
REMARK    9  A    between atoms: _19  and  _21
REMARK   10  A    between atoms: _21  and  _22
REMARK   11  A    between atoms: _21  and  _24
REMARK   12  A    between atoms: _27  and  _29
REMARK   13  A    between atoms: _29  and  _30
REMARK   14  A    between atoms: _29  and  _32
REMARK   15  A    between atoms: _32  and  _33
REMARK   16  A    between atoms: _37  and  _38
REMARK   17  A    between atoms: _43  and  _45
REMARK   18  A    between atoms: _45  and  _46
REMARK   19  A    between atoms: _45  and  _48
REMARK   20  A    between atoms: _48  and  _49
REMARK   21  A    between atoms: _52  and  _54
REMARK   22  A    between atoms: _54  and  _55
REMARK   23  A    between atoms: _54  and  _57
REMARK   24  A    between atoms: _57  and  _58
REMARK   25  A    between atoms: _63  and  _65
REMARK   26  A    between atoms: _65  and  _66
REMARK   27  A    between atoms: _65  and  _68
REMARK   28  A    between atoms: _68  and  _69
REMARK   29  A    between atoms: _74  and  _76
REMARK   30  A    between atoms: _76  and  _77
REMARK   31  A    between atoms: _79  and  _81
REMARK   32  A    between atoms: _81  and  _82
REMARK   33  A    between atoms: _81  and  _84
REMARK   34  A    between atoms: _84  and  _85
REMARK   35  A    between atoms: _87  and  _89
REMARK   36  A    between atoms: _89  and  _90
REMARK   37  A    between atoms: _89  and  _92
REMARK   38  A    between atoms: _92  and  _93
REMARK   39  A    between atoms: _96  and  _98
REMARK   40  A    between atoms: _98  and  _99
REMARK   41  A    between atoms: _98  and  _101
REMARK   42  A    between atoms: _101  and  _102
REMARK   43  A    between atoms: _107  and  _108
REMARK   44  A    between atoms: _110  and  _112
REMARK   45  A    between atoms: _112  and  _113
REMARK   46  A    between atoms: _115  and  _117
REMARK   47  A    between atoms: _117  and  _118
REMARK   48  A    between atoms: _117  and  _120
REMARK   49  A    between atoms: _120  and  _121
REMARK   50  A    between atoms: _124  and  _126
REMARK   51  A    between atoms: _126  and  _127
REMARK   52  A    between atoms: _126  and  _129
REMARK   53  A    between atoms: _129  and  _130
REMARK   54  A    between atoms: _133  and  _135
REMARK   55  A    between atoms: _135  and  _136
REMARK   56  A    between atoms: _135  and  _138
REMARK   57  A    between atoms: _138  and  _139
REMARK   58  A    between atoms: _139  and  _140
REMARK   59  A    between atoms: _140  and  _141
REMARK   60  A    between atoms: _141  and  _142
REMARK   61  A    between atoms: _146  and  _148
REMARK   62  A    between atoms: _148  and  _149
REMARK   63  A    between atoms: _148  and  _151
REMARK   64  A    between atoms: _151  and  _152
REMARK   65  A    between atoms: _152  and  _153
REMARK   66  A    between atoms: _156  and  _158
REMARK   67  A    between atoms: _158  and  _159
REMARK   68  A    between atoms: _158  and  _161
REMARK   69  A    between atoms: _164  and  _166
REMARK   70  A    between atoms: _166  and  _167
REMARK   71  A    between atoms: _166  and  _169
REMARK   72  A    between atoms: _169  and  _170
REMARK   73  A    between atoms: _172  and  _174
REMARK   74  A    between atoms: _174  and  _175
REMARK   75  A    between atoms: _174  and  _177
REMARK   76  A    between atoms: _177  and  _178
REMARK   77  A    between atoms: _178  and  _179
REMARK   78  A    between atoms: _184  and  _186
REMARK   79  A    between atoms: _186  and  _187
REMARK   80  A    between atoms: _186  and  _189
REMARK   81  A    between atoms: _191  and  _193
REMARK   82  A    between atoms: _193  and  _194
REMARK   83  A    between atoms: _193  and  _196
REMARK   84  A    between atoms: _198  and  _200
REMARK   85  A    between atoms: _200  and  _201
REMARK   86  A    between atoms: _200  and  _203
REMARK   87  A    between atoms: _203  and  _204
REMARK   88  A    between atoms: _207  and  _209
REMARK   89  A    between atoms: _209  and  _210
REMARK   90  A    between atoms: _209  and  _212
REMARK   91  A    between atoms: _212  and  _213
REMARK   92  A    between atoms: _216  and  _218
REMARK   93  A    between atoms: _218  and  _219
REMARK   94  A    between atoms: _218  and  _221
REMARK   95  A    between atoms: _221  and  _222
REMARK   96  A    between atoms: _222  and  _223
REMARK   97  A    between atoms: _223  and  _224
REMARK   98  A    between atoms: _224  and  _225
REMARK   99  A    between atoms: _229  and  _231
REMARK  100  A    between atoms: _231  and  _232
REMARK  101  A    between atoms: _231  and  _234
REMARK  102  A    between atoms: _234  and  _235
REMARK  103  A    between atoms: _240  and  _242
REMARK  104  A    between atoms: _242  and  _243
REMARK  105  A    between atoms: _242  and  _245
REMARK  106  A    between atoms: _245  and  _246
REMARK  107  A    between atoms: _251  and  _252
REMARK  108  A    between atoms: _254  and  _256
REMARK  109  A    between atoms: _256  and  _257
REMARK  110  A    between atoms: _256  and  _259
REMARK  111  A    between atoms: _262  and  _264
REMARK  112  A    between atoms: _264  and  _265
REMARK  113  A    between atoms: _264  and  _267
REMARK  114  A    between atoms: _267  and  _268
REMARK  115  A    between atoms: _268  and  _269
REMARK  116  A    between atoms: _269  and  _270
REMARK  117  A    between atoms: _270  and  _271
REMARK  118  A    between atoms: _275  and  _277
REMARK  119  A    between atoms: _277  and  _278
REMARK  120  A    between atoms: _277  and  _280
REMARK  121  A    between atoms: _280  and  _281
REMARK  122  A    between atoms: _284  and  _286
REMARK  123  A    between atoms: _286  and  _287
REMARK  124  A    between atoms: _286  and  _289
REMARK  125  A    between atoms: _289  and  _290
REMARK  126  A    between atoms: _290  and  _291
REMARK  127  A    between atoms: _291  and  _292
REMARK  128  A    between atoms: _292  and  _293
REMARK                            x       y       z     vdW  Elec       q    Type
REMARK                         _______ _______ _______ _____ _____    ______ ____
ROOT
ATOM      1  C   SER A   7      23.050  22.549  33.981  0.00  0.00    +0.243 C 
ATOM      2  N   LEU A   8      23.057  22.463  35.310  0.00  0.00    -0.297 N 
ATOM      3  H   LEU A   8      23.796  21.910  35.789  0.00  0.00    +0.150 HD
ATOM      4  O   SER A   7      22.286  23.301  33.362  0.00  0.00    -0.273 OA
ENDROOT
BRANCH   2   5
ATOM      5  CA  LEU A   8      22.025  23.146  36.104  0.00  0.00    +0.149 C 
BRANCH   5   6
ATOM      6  C   LEU A   8      22.096  24.666  35.960  0.00  0.00    +0.241 C 
ATOM      7  N   TYR A   9      23.298  25.231  36.030  0.00  0.00    -0.297 N 
ATOM      8  H   TYR A   9      24.138  24.647  36.217  0.00  0.00    +0.150 HD
ATOM      9  O   LEU A   8      21.063  25.332  35.810  0.00  0.00    -0.273 OA
BRANCH   7  10
ATOM     10  CA  TYR A   9      23.435  26.670  35.844  0.00  0.00    +0.153 C 
BRANCH  10  11
ATOM     11  C   TYR A   9      22.777  27.110  34.515  0.00  0.00    +0.241 C 
ATOM     12  O   TYR A   9      21.906  28.001  34.501  0.00  0.00    -0.273 OA
ATOM     13  N   GLY A  10      23.178  26.488  33.403  0.00  0.00    -0.295 N 
ATOM     14  H   GLY A  10      23.829  25.680  33.468  0.00  0.00    +0.150 HD
BRANCH  13  15
ATOM     15  CA  GLY A  10      22.709  26.935  32.106  0.00  0.00    +0.176 C 
BRANCH  15  16
ATOM     16  C   GLY A  10      21.203  26.745  31.964  0.00  0.00    +0.243 C 
ATOM     17  N   ASP A  11      20.663  25.608  32.478  0.00  0.00    -0.296 N 
ATOM     18  H   ASP A  11      21.297  24.885  32.875  0.00  0.00    +0.150 HD
ATOM     19  O   GLY A  10      20.506  27.592  31.381  0.00  0.00    -0.273 OA
BRANCH  17  20
ATOM     20  CA  ASP A  11      19.215  25.367  32.491  0.00  0.00    +0.160 C 
BRANCH  20  21
ATOM     21  C   ASP A  11      18.446  26.406  33.310  0.00  0.00    +0.241 C 
ATOM     22  N   LEU A  12      18.926  26.699  34.518  0.00  0.00    -0.297 N 
ATOM     23  H   LEU A  12      19.688  26.105  34.903  0.00  0.00    +0.150 HD
ATOM     24  O   ASP A  11      17.430  26.921  32.848  0.00  0.00    -0.273 OA
BRANCH  22  25
ATOM     25  CA  LEU A  12      18.435  27.817  35.333  0.00  0.00    +0.149 C 
BRANCH  25  26
ATOM     26  C   LEU A  12      18.344  29.093  34.520  0.00  0.00    +0.241 C 
ATOM     27  O   LEU A  12      17.313  29.776  34.501  0.00  0.00    -0.273 OA
ATOM     28  N   LYS A  13      19.441  29.447  33.878  0.00  0.00    -0.298 N 
ATOM     29  H   LYS A  13      20.258  28.805  33.828  0.00  0.00    +0.150 HD
BRANCH  28  30
ATOM     30  CA  LYS A  13      19.483  30.757  33.240  0.00  0.00    +0.137 C 
BRANCH  30  31
ATOM     31  C   LYS A  13      18.590  30.867  32.032  0.00  0.00    +0.227 C 
ATOM     32  O   LYS A  13      18.004  31.905  31.801  0.00  0.00    -0.286 OA
ENDBRANCH  30  31
BRANCH  30  33
ATOM     33  CB  LYS A  13      20.916  31.162  32.921  0.00  0.00    +0.028 C 
BRANCH  33  34
ATOM     34  CG  LYS A  13      21.737  31.415  34.178  0.00  0.00    -0.000 C 
BRANCH  34  35
ATOM     35  CD  LYS A  13      21.245  32.642  34.922  0.00  0.00    -0.024 C 
BRANCH  35  36
ATOM     36  CE  LYS A  13      22.106  32.819  36.168  0.00  0.00    -0.086 C 
BRANCH  36  37
ATOM     37  NZ  LYS A  13      21.837  34.060  36.932  0.00  0.00    +0.380 N 
ATOM     38  HZ1 LYS A  13      22.465  34.099  37.760  0.00  0.00    -0.089 HD
ATOM     39  HZ2 LYS A  13      20.846  34.064  37.246  0.00  0.00    -0.089 HD
ATOM     40  HZ3 LYS A  13      22.012  34.885  36.324  0.00  0.00    -0.089 HD
ENDBRANCH  36  37
ENDBRANCH  35  36
ENDBRANCH  34  35
ENDBRANCH  33  34
ENDBRANCH  30  33
ENDBRANCH  28  30
ENDBRANCH  25  26
BRANCH  25  41
ATOM     41  CB  LEU A  12      19.382  28.078  36.507  0.00  0.00    +0.029 C 
BRANCH  41  42
ATOM     42  CG  LEU A  12      19.012  27.893  37.967  0.00  0.00    +0.002 C 
ATOM     43  CD2 LEU A  12      20.087  27.048  38.665  0.00  0.00    +0.000 C 
ATOM     44  CD1 LEU A  12      17.614  27.379  38.224  0.00  0.00    +0.000 C 
ENDBRANCH  41  42
ENDBRANCH  25  41
ENDBRANCH  22  25
ENDBRANCH  20  21
BRANCH  20  45
ATOM     45  CB  ASP A  11      18.887  23.962  33.031  0.00  0.00    +0.143 C 
BRANCH  45  46
ATOM     46  CG  ASP A  11      19.375  22.842  32.116  0.00  0.00    +0.367 C 
ATOM     47  OD2 ASP A  11      19.376  21.680  32.580  0.00  0.00    -0.246 OA
ATOM     48  OD1 ASP A  11      19.767  23.103  30.961  0.00  0.00    -0.246 OA
ENDBRANCH  45  46
ENDBRANCH  20  45
ENDBRANCH  17  20
ENDBRANCH  15  16
ENDBRANCH  13  15
ENDBRANCH  10  11
BRANCH  10  49
ATOM     49  CB  TYR A   9      24.904  27.085  35.922  0.00  0.00    +0.055 C 
BRANCH  49  50
ATOM     50  CG  TYR A   9      25.159  28.568  35.693  0.00  0.00    -0.020 A 
ATOM     51  CD2 TYR A   9      25.247  29.447  36.762  0.00  0.00    -0.001 A 
ATOM     52  CE2 TYR A   9      25.458  30.795  36.553  0.00  0.00    +0.036 A 
ATOM     53  CZ  TYR A   9      25.596  31.276  35.245  0.00  0.00    +0.134 A 
ATOM     54  CE1 TYR A   9      25.521  30.414  34.181  0.00  0.00    +0.036 A 
ATOM     55  CD1 TYR A   9      25.281  29.079  34.402  0.00  0.00    -0.001 A 
BRANCH  53  56
ATOM     56  OH  TYR A   9      25.808  32.612  34.991  0.00  0.00    -0.506 OA
ATOM     57  HH  TYR A   9      25.050  33.139  35.348  0.00  0.00    +0.292 HD
ENDBRANCH  53  56
ENDBRANCH  49  50
ENDBRANCH  10  49
ENDBRANCH   7  10
ENDBRANCH   5   6
BRANCH   5  58
ATOM     58  CB  LEU A   8      22.078  22.729  37.569  0.00  0.00    +0.029 C 
BRANCH  58  59
ATOM     59  CG  LEU A   8      21.166  23.413  38.581  0.00  0.00    +0.002 C 
ATOM     60  CD2 LEU A   8      21.501  22.867  39.999  0.00  0.00    +0.000 C 
ATOM     61  CD1 LEU A   8      19.675  23.268  38.264  0.00  0.00    +0.000 C 
ENDBRANCH  58  59
ENDBRANCH   5  58
ENDBRANCH   2   5
BRANCH   1  62
ATOM     62  CA  SER A   7      24.025  21.646  33.219  0.00  0.00    +0.178 C 
BRANCH  62  65
ATOM     63  C   GLY A   6      25.954  21.318  34.660  0.00  0.00    +0.243 C 
ATOM     64  O   GLY A   6      26.271  22.515  34.578  0.00  0.00    -0.273 OA
ATOM     65  N   SER A   7      24.848  20.824  34.105  0.00  0.00    -0.295 N 
ATOM     66  H   SER A   7      24.567  19.843  34.304  0.00  0.00    +0.150 HD
BRANCH  63  67
ATOM     67  CA  GLY A   6      26.825  20.332  35.429  0.00  0.00    +0.176 C 
BRANCH  67  70
ATOM     68  C   ASN A   5      26.032  21.038  37.609  0.00  0.00    +0.241 C 
ATOM     69  O   ASN A   5      24.865  20.901  37.256  0.00  0.00    -0.273 OA
ATOM     70  N   GLY A   6      27.057  20.798  36.795  0.00  0.00    -0.295 N 
ATOM     71  H   GLY A   6      28.030  20.943  37.133  0.00  0.00    +0.150 HD
BRANCH  68  72
ATOM     72  CA  ASN A   5      26.368  21.421  39.038  0.00  0.00    +0.158 C 
BRANCH  72  75
ATOM     73  C   ASN A   4      28.452  20.740  40.128  0.00  0.00    +0.241 C 
ATOM     74  O   ASN A   4      27.919  19.721  40.598  0.00  0.00    -0.273 OA
ATOM     75  N   ASN A   5      27.813  21.564  39.290  0.00  0.00    -0.297 N 
ATOM     76  H   ASN A   5      28.344  22.317  38.809  0.00  0.00    +0.150 HD
BRANCH  73  77
ATOM     77  CA  ASN A   4      29.859  21.129  40.565  0.00  0.00    +0.158 C 
BRANCH  77  79
ATOM     78  C   ASP A   3      29.996  23.073  42.050  0.00  0.00    +0.241 C 
ATOM     79  N   ASN A   4      29.756  21.777  41.861  0.00  0.00    -0.297 N 
ATOM     80  H   ASN A   4      29.481  21.200  42.682  0.00  0.00    +0.150 HD
ATOM     81  O   ASP A   3      30.361  23.835  41.145  0.00  0.00    -0.273 OA
BRANCH  78  82
ATOM     82  CA  ASP A   3      29.753  23.570  43.479  0.00  0.00    +0.160 C 
BRANCH  82  84
ATOM     83  C   PRO A   2      27.354  23.127  43.433  0.00  0.00    +0.241 C 
ATOM     84  N   ASP A   3      28.533  22.985  44.029  0.00  0.00    -0.297 N 
ATOM     85  H   ASP A   3      28.589  22.441  44.914  0.00  0.00    +0.150 HD
ATOM     86  O   PRO A   2      27.214  23.717  42.348  0.00  0.00    -0.273 OA
BRANCH  83  90
ATOM     87  C   LEU A   1      24.934  24.656  44.194  0.00  0.00    +0.241 C 
ATOM     88  O   LEU A   1      25.824  25.181  44.859  0.00  0.00    -0.273 OA
ATOM     89  N   PRO A   2      24.904  23.341  43.938  0.00  0.00    -0.272 N 
ATOM     90  CA  PRO A   2      26.128  22.537  44.161  0.00  0.00    +0.152 C 
ATOM     91  CB  PRO A   2      25.764  21.158  43.597  0.00  0.00    +0.031 C 
ATOM     92  CG  PRO A   2      24.280  21.165  43.392  0.00  0.00    +0.024 C 
ATOM     93  CD  PRO A   2      23.803  22.571  43.330  0.00  0.00    +0.094 C 
BRANCH  87  94
ATOM     94  CA  LEU A   1      23.837  25.510  43.565  0.00  0.00    +0.145 C 
BRANCH  94  95
ATOM     95  N   LEU A   1      23.474  26.623  44.448  0.00  0.00    -0.238 NA
ATOM     96  H   LEU A   1      24.192  27.346  44.655  0.00  0.00    +0.142 HD
ENDBRANCH  94  95
BRANCH  94  97
ATOM     97  CB  LEU A   1      24.352  26.000  42.202  0.00  0.00    +0.026 C 
BRANCH  97  98
ATOM     98  CG  LEU A   1      23.473  26.876  41.328  0.00  0.00    +0.002 C 
ATOM     99  CD2 LEU A   1      22.309  26.099  40.873  0.00  0.00    +0.000 C 
ATOM    100  CD1 LEU A   1      24.210  27.432  40.113  0.00  0.00    +0.000 C 
ENDBRANCH  97  98
ENDBRANCH  94  97
ENDBRANCH  87  94
ENDBRANCH  83  90
ENDBRANCH  82  84
BRANCH  82 101
ATOM    101  CB  ASP A   3      30.958  23.211  44.353  0.00  0.00    +0.143 C 
BRANCH 101 102
ATOM    102  CG  ASP A   3      30.896  23.843  45.735  0.00  0.00    +0.367 C 
ATOM    103  OD2 ASP A   3      31.558  23.286  46.640  0.00  0.00    -0.246 OA
ATOM    104  OD1 ASP A   3      30.187  24.870  45.929  0.00  0.00    -0.246 OA
ENDBRANCH 101 102
ENDBRANCH  82 101
ENDBRANCH  78  82
ENDBRANCH  77  79
BRANCH  77 105
ATOM    105  CB  ASN A   4      30.807  19.907  40.711  0.00  0.00    +0.114 C 
BRANCH 105 106
ATOM    106  CG  ASN A   4      30.796  18.992  39.503  0.00  0.00    +0.222 C 
ATOM    107  OD1 ASN A   4      30.378  17.838  39.594  0.00  0.00    -0.275 OA
ATOM    108  ND2 ASN A   4      31.288  19.492  38.369  0.00  0.00    -0.329 N 
ATOM    109 HD21 ASN A   4      31.630  20.474  38.339  0.00  0.00    +0.145 HD
ATOM    110 HD22 ASN A   4      31.330  18.900  37.515  0.00  0.00    +0.145 HD
ENDBRANCH 105 106
ENDBRANCH  77 105
ENDBRANCH  73  77
ENDBRANCH  72  75
BRANCH  72 111
ATOM    111  CB  ASN A   5      25.577  22.664  39.474  0.00  0.00    +0.114 C 
BRANCH 111 112
ATOM    112  CG  ASN A   5      26.074  23.927  38.817  0.00  0.00    +0.222 C 
ATOM    113  ND2 ASN A   5      26.877  24.700  39.545  0.00  0.00    -0.329 N 
ATOM    114 HD21 ASN A   5      27.135  24.417  40.512  0.00  0.00    +0.145 HD
ATOM    115 HD22 ASN A   5      27.246  25.587  39.147  0.00  0.00    +0.145 HD
ATOM    116  OD1 ASN A   5      25.739  24.213  37.674  0.00  0.00    -0.275 OA
ENDBRANCH 111 112
ENDBRANCH  72 111
ENDBRANCH  68  72
ENDBRANCH  67  70
ENDBRANCH  63  67
ENDBRANCH  62  65
BRANCH  62 117
ATOM    117  CB  SER A   7      23.240  20.783  32.249  0.00  0.00    +0.166 C 
BRANCH 117 118
ATOM    118  OG  SER A   7      22.466  19.837  32.962  0.00  0.00    -0.380 OA
ATOM    119  H   SER A   7      23.065  19.261  33.501  0.00  0.00    +0.211 HD
ENDBRANCH 117 118
ENDBRANCH  62 117
ENDBRANCH   1  62
TORSDOF 49
REMARK  Name = ../refined-set-2016/4g0p/4g0p_pocket.pdb
REMARK  128 active torsions:
REMARK  status: ('A' for Active; 'I' for Inactive)
REMARK    1  A    between atoms: _1  and  _3
REMARK    2  A    between atoms: _3  and  _4
REMARK    3  A    between atoms: _3  and  _6
REMARK    4  A    between atoms: _6  and  _7
REMARK    5  A    between atoms: _10  and  _12
REMARK    6  A    between atoms: _12  and  _13
REMARK    7  A    between atoms: _12  and  _15
REMARK    8  A    between atoms: _15  and  _16
REMARK    9  A    between atoms: _19  and  _21
REMARK   10  A    between atoms: _21  and  _22
REMARK   11  A    between atoms: _21  and  _24
REMARK   12  A    between atoms: _27  and  _29
REMARK   13  A    between atoms: _29  and  _30
REMARK   14  A    between atoms: _29  and  _32
REMARK   15  A    between atoms: _32  and  _33
REMARK   16  A    between atoms: _37  and  _38
REMARK   17  A    between atoms: _43  and  _45
REMARK   18  A    between atoms: _45  and  _46
REMARK   19  A    between atoms: _45  and  _48
REMARK   20  A    between atoms: _48  and  _49
REMARK   21  A    between atoms: _52  and  _54
REMARK   22  A    between atoms: _54  and  _55
REMARK   23  A    between atoms: _54  and  _57
REMARK   24  A    between atoms: _57  and  _58
REMARK   25  A    between atoms: _63  and  _65
REMARK   26  A    between atoms: _65  and  _66
REMARK   27  A    between atoms: _65  and  _68
REMARK   28  A    between atoms: _68  and  _69
REMARK   29  A    between atoms: _74  and  _76
REMARK   30  A    between atoms: _76  and  _77
REMARK   31  A    between atoms: _79  and  _81
REMARK   32  A    between atoms: _81  and  _82
REMARK   33  A    between atoms: _81  and  _84
REMARK   34  A    between atoms: _84  and  _85
REMARK   35  A    between atoms: _87  and  _89
REMARK   36  A    between atoms: _89  and  _90
REMARK   37  A    between atoms: _89  and  _92
REMARK   38  A    between atoms: _92  and  _93
REMARK   39  A    between atoms: _96  and  _98
REMARK   40  A    between atoms: _98  and  _99
REMARK   41  A    between atoms: _98  and  _101
REMARK   42  A    between atoms: _101  and  _102
REMARK   43  A    between atoms: _107  and  _108
REMARK   44  A    between atoms: _110  and  _112
REMARK   45  A    between atoms: _112  and  _113
REMARK   46  A    between atoms: _115  and  _117
REMARK   47  A    between atoms: _117  and  _118
REMARK   48  A    between atoms: _117  and  _120
REMARK   49  A    between atoms: _120  and  _121
REMARK   50  A    between atoms: _124  and  _126
REMARK   51  A    between atoms: _126  and  _127
REMARK   52  A    between atoms: _126  and  _129
REMARK   53  A    between atoms: _129  and  _130
REMARK   54  A    between atoms: _133  and  _135
REMARK   55  A    between atoms: _135  and  _136
REMARK   56  A    between atoms: _135  and  _138
REMARK   57  A    between atoms: _138  and  _139
REMARK   58  A    between atoms: _139  and  _140
REMARK   59  A    between atoms: _140  and  _141
REMARK   60  A    between atoms: _141  and  _142
REMARK   61  A    between atoms: _146  and  _148
REMARK   62  A    between atoms: _148  and  _149
REMARK   63  A    between atoms: _148  and  _151
REMARK   64  A    between atoms: _151  and  _152
REMARK   65  A    between atoms: _152  and  _153
REMARK   66  A    between atoms: _156  and  _158
REMARK   67  A    between atoms: _158  and  _159
REMARK   68  A    between atoms: _158  and  _161
REMARK   69  A    between atoms: _164  and  _166
REMARK   70  A    between atoms: _166  and  _167
REMARK   71  A    between atoms: _166  and  _169
REMARK   72  A    between atoms: _169  and  _170
REMARK   73  A    between atoms: _172  and  _174
REMARK   74  A    between atoms: _174  and  _175
REMARK   75  A    between atoms: _174  and  _177
REMARK   76  A    between atoms: _177  and  _178
REMARK   77  A    between atoms: _178  and  _179
REMARK   78  A    between atoms: _184  and  _186
REMARK   79  A    between atoms: _186  and  _187
REMARK   80  A    between atoms: _186  and  _189
REMARK   81  A    between atoms: _191  and  _193
REMARK   82  A    between atoms: _193  and  _194
REMARK   83  A    between atoms: _193  and  _196
REMARK   84  A    between atoms: _198  and  _200
REMARK   85  A    between atoms: _200  and  _201
REMARK   86  A    between atoms: _200  and  _203
REMARK   87  A    between atoms: _203  and  _204
REMARK   88  A    between atoms: _207  and  _209
REMARK   89  A    between atoms: _209  and  _210
REMARK   90  A    between atoms: _209  and  _212
REMARK   91  A    between atoms: _212  and  _213
REMARK   92  A    between atoms: _216  and  _218
REMARK   93  A    between atoms: _218  and  _219
REMARK   94  A    between atoms: _218  and  _221
REMARK   95  A    between atoms: _221  and  _222
REMARK   96  A    between atoms: _222  and  _223
REMARK   97  A    between atoms: _223  and  _224
REMARK   98  A    between atoms: _224  and  _225
REMARK   99  A    between atoms: _229  and  _231
REMARK  100  A    between atoms: _231  and  _232
REMARK  101  A    between atoms: _231  and  _234
REMARK  102  A    between atoms: _234  and  _235
REMARK  103  A    between atoms: _240  and  _242
REMARK  104  A    between atoms: _242  and  _243
REMARK  105  A    between atoms: _242  and  _245
REMARK  106  A    between atoms: _245  and  _246
REMARK  107  A    between atoms: _251  and  _252
REMARK  108  A    between atoms: _254  and  _256
REMARK  109  A    between atoms: _256  and  _257
REMARK  110  A    between atoms: _256  and  _259
REMARK  111  A    between atoms: _262  and  _264
REMARK  112  A    between atoms: _264  and  _265
REMARK  113  A    between atoms: _264  and  _267
REMARK  114  A    between atoms: _267  and  _268
REMARK  115  A    between atoms: _268  and  _269
REMARK  116  A    between atoms: _269  and  _270
REMARK  117  A    between atoms: _270  and  _271
REMARK  118  A    between atoms: _275  and  _277
REMARK  119  A    between atoms: _277  and  _278
REMARK  120  A    between atoms: _277  and  _280
REMARK  121  A    between atoms: _280  and  _281
REMARK  122  A    between atoms: _284  and  _286
REMARK  123  A    between atoms: _286  and  _287
REMARK  124  A    between atoms: _286  and  _289
REMARK  125  A    between atoms: _289  and  _290
REMARK  126  A    between atoms: _290  and  _291
REMARK  127  A    between atoms: _291  and  _292
REMARK  128  A    between atoms: _292  and  _293
REMARK                            x       y       z     vdW  Elec       q    Type
REMARK                         _______ _______ _______ _____ _____    ______ ____
ROOT
ATOM      1  CA  GLU A   1      15.817  34.630  31.066  0.00  0.00    +0.134 C 
ENDROOT
BRANCH   1   2
ATOM      2  N   GLU A   1      15.622  33.556  32.036  0.00  0.00    -0.239 NA
ATOM      3  H   GLU A   1      16.186  32.687  31.950  0.00  0.00    +0.142 HD
ENDBRANCH   1   2
BRANCH   1   4
ATOM      4  C   GLU A   1      14.645  34.625  30.090  0.00  0.00    +0.224 C 
ATOM      5  O   GLU A   1      14.101  35.677  29.769  0.00  0.00    -0.287 OA
ENDBRANCH   1   4
BRANCH   1   6
ATOM      6  CB  GLU A   1      17.185  34.507  30.328  0.00  0.00    +0.037 C 
BRANCH   6   7
ATOM      7  CG  GLU A   1      18.354  35.047  31.159  0.00  0.00    +0.116 C 
BRANCH   7   8
ATOM      8  CD  GLU A   1      19.757  34.632  30.675  0.00  0.00    +0.365 C 
ATOM      9  OE2 GLU A   1      20.689  34.667  31.521  0.00  0.00    -0.246 OA
ATOM     10  OE1 GLU A   1      19.919  34.285  29.475  0.00  0.00    -0.246 OA
ENDBRANCH   7   8
ENDBRANCH   6   7
ENDBRANCH   1   6
TORSDOF 5
REMARK  Name = ../refined-set-2016/4g0p/4g0p_pocket.pdb
REMARK  128 active torsions:
REMARK  status: ('A' for Active; 'I' for Inactive)
REMARK    1  A    between atoms: _1  and  _3
REMARK    2  A    between atoms: _3  and  _4
REMARK    3  A    between atoms: _3  and  _6
REMARK    4  A    between atoms: _6  and  _7
REMARK    5  A    between atoms: _10  and  _12
REMARK    6  A    between atoms: _12  and  _13
REMARK    7  A    between atoms: _12  and  _15
REMARK    8  A    between atoms: _15  and  _16
REMARK    9  A    between atoms: _19  and  _21
REMARK   10  A    between atoms: _21  and  _22
REMARK   11  A    between atoms: _21  and  _24
REMARK   12  A    between atoms: _27  and  _29
REMARK   13  A    between atoms: _29  and  _30
REMARK   14  A    between atoms: _29  and  _32
REMARK   15  A    between atoms: _32  and  _33
REMARK   16  A    between atoms: _37  and  _38
REMARK   17  A    between atoms: _43  and  _45
REMARK   18  A    between atoms: _45  and  _46
REMARK   19  A    between atoms: _45  and  _48
REMARK   20  A    between atoms: _48  and  _49
REMARK   21  A    between atoms: _52  and  _54
REMARK   22  A    between atoms: _54  and  _55
REMARK   23  A    between atoms: _54  and  _57
REMARK   24  A    between atoms: _57  and  _58
REMARK   25  A    between atoms: _63  and  _65
REMARK   26  A    between atoms: _65  and  _66
REMARK   27  A    between atoms: _65  and  _68
REMARK   28  A    between atoms: _68  and  _69
REMARK   29  A    between atoms: _74  and  _76
REMARK   30  A    between atoms: _76  and  _77
REMARK   31  A    between atoms: _79  and  _81
REMARK   32  A    between atoms: _81  and  _82
REMARK   33  A    between atoms: _81  and  _84
REMARK   34  A    between atoms: _84  and  _85
REMARK   35  A    between atoms: _87  and  _89
REMARK   36  A    between atoms: _89  and  _90
REMARK   37  A    between atoms: _89  and  _92
REMARK   38  A    between atoms: _92  and  _93
REMARK   39  A    between atoms: _96  and  _98
REMARK   40  A    between atoms: _98  and  _99
REMARK   41  A    between atoms: _98  and  _101
REMARK   42  A    between atoms: _101  and  _102
REMARK   43  A    between atoms: _107  and  _108
REMARK   44  A    between atoms: _110  and  _112
REMARK   45  A    between atoms: _112  and  _113
REMARK   46  A    between atoms: _115  and  _117
REMARK   47  A    between atoms: _117  and  _118
REMARK   48  A    between atoms: _117  and  _120
REMARK   49  A    between atoms: _120  and  _121
REMARK   50  A    between atoms: _124  and  _126
REMARK   51  A    between atoms: _126  and  _127
REMARK   52  A    between atoms: _126  and  _129
REMARK   53  A    between atoms: _129  and  _130
REMARK   54  A    between atoms: _133  and  _135
REMARK   55  A    between atoms: _135  and  _136
REMARK   56  A    between atoms: _135  and  _138
REMARK   57  A    between atoms: _138  and  _139
REMARK   58  A    between atoms: _139  and  _140
REMARK   59  A    between atoms: _140  and  _141
REMARK   60  A    between atoms: _141  and  _142
REMARK   61  A    between atoms: _146  and  _148
REMARK   62  A    between atoms: _148  and  _149
REMARK   63  A    between atoms: _148  and  _151
REMARK   64  A    between atoms: _151  and  _152
REMARK   65  A    between atoms: _152  and  _153
REMARK   66  A    between atoms: _156  and  _158
REMARK   67  A    between atoms: _158  and  _159
REMARK   68  A    between atoms: _158  and  _161
REMARK   69  A    between atoms: _164  and  _166
REMARK   70  A    between atoms: _166  and  _167
REMARK   71  A    between atoms: _166  and  _169
REMARK   72  A    between atoms: _169  and  _170
REMARK   73  A    between atoms: _172  and  _174
REMARK   74  A    between atoms: _174  and  _175
REMARK   75  A    between atoms: _174  and  _177
REMARK   76  A    between atoms: _177  and  _178
REMARK   77  A    between atoms: _178  and  _179
REMARK   78  A    between atoms: _184  and  _186
REMARK   79  A    between atoms: _186  and  _187
REMARK   80  A    between atoms: _186  and  _189
REMARK   81  A    between atoms: _191  and  _193
REMARK   82  A    between atoms: _193  and  _194
REMARK   83  A    between atoms: _193  and  _196
REMARK   84  A    between atoms: _198  and  _200
REMARK   85  A    between atoms: _200  and  _201
REMARK   86  A    between atoms: _200  and  _203
REMARK   87  A    between atoms: _203  and  _204
REMARK   88  A    between atoms: _207  and  _209
REMARK   89  A    between atoms: _209  and  _210
REMARK   90  A    between atoms: _209  and  _212
REMARK   91  A    between atoms: _212  and  _213
REMARK   92  A    between atoms: _216  and  _218
REMARK   93  A    between atoms: _218  and  _219
REMARK   94  A    between atoms: _218  and  _221
REMARK   95  A    between atoms: _221  and  _222
REMARK   96  A    between atoms: _222  and  _223
REMARK   97  A    between atoms: _223  and  _224
REMARK   98  A    between atoms: _224  and  _225
REMARK   99  A    between atoms: _229  and  _231
REMARK  100  A    between atoms: _231  and  _232
REMARK  101  A    between atoms: _231  and  _234
REMARK  102  A    between atoms: _234  and  _235
REMARK  103  A    between atoms: _240  and  _242
REMARK  104  A    between atoms: _242  and  _243
REMARK  105  A    between atoms: _242  and  _245
REMARK  106  A    between atoms: _245  and  _246
REMARK  107  A    between atoms: _251  and  _252
REMARK  108  A    between atoms: _254  and  _256
REMARK  109  A    between atoms: _256  and  _257
REMARK  110  A    between atoms: _256  and  _259
REMARK  111  A    between atoms: _262  and  _264
REMARK  112  A    between atoms: _264  and  _265
REMARK  113  A    between atoms: _264  and  _267
REMARK  114  A    between atoms: _267  and  _268
REMARK  115  A    between atoms: _268  and  _269
REMARK  116  A    between atoms: _269  and  _270
REMARK  117  A    between atoms: _270  and  _271
REMARK  118  A    between atoms: _275  and  _277
REMARK  119  A    between atoms: _277  and  _278
REMARK  120  A    between atoms: _277  and  _280
REMARK  121  A    between atoms: _280  and  _281
REMARK  122  A    between atoms: _284  and  _286
REMARK  123  A    between atoms: _286  and  _287
REMARK  124  A    between atoms: _286  and  _289
REMARK  125  A    between atoms: _289  and  _290
REMARK  126  A    between atoms: _290  and  _291
REMARK  127  A    between atoms: _291  and  _292
REMARK  128  A    between atoms: _292  and  _293
REMARK                            x       y       z     vdW  Elec       q    Type
REMARK                         _______ _______ _______ _____ _____    ______ ____
ROOT
ATOM      1  C   CYS A   5      25.921  29.700  44.903  0.00  0.00    +0.242 C 
ATOM      2  O   CYS A   5      25.062  28.926  45.146  0.00  0.00    -0.273 OA
ATOM      3  N   LEU A   6      27.202  29.464  44.895  0.00  0.00    -0.297 N 
ATOM      4  H   LEU A   6      27.872  30.250  44.768  0.00  0.00    +0.150 HD
ENDROOT
BRANCH   3   5
ATOM      5  CA  LEU A   6      27.704  28.101  45.063  0.00  0.00    +0.149 C 
BRANCH   5   6
ATOM      6  C   LEU A   6      27.809  27.701  46.550  0.00  0.00    +0.241 C 
ATOM      7  O   LEU A   6      28.161  28.518  47.399  0.00  0.00    -0.273 OA
ATOM      8  N   THR A   7      27.486  26.444  46.832  0.00  0.00    -0.295 N 
ATOM      9  H   THR A   7      27.169  25.836  46.050  0.00  0.00    +0.150 HD
BRANCH   8  10
ATOM     10  CA  THR A   7      27.548  25.859  48.175  0.00  0.00    +0.176 C 
BRANCH  10  11
ATOM     11  C   THR A   7      28.802  26.264  48.950  0.00  0.00    +0.243 C 
ATOM     12  O   THR A   7      28.733  26.590  50.137  0.00  0.00    -0.273 OA
ATOM     13  N   LYS A   8      29.954  26.243  48.279  0.00  0.00    -0.297 N 
ATOM     14  H   LYS A   8      29.967  25.979  47.273  0.00  0.00    +0.150 HD
BRANCH  13  15
ATOM     15  CA  LYS A   8      31.202  26.593  48.964  0.00  0.00    +0.149 C 
BRANCH  15  16
ATOM     16  C   LYS A   8      31.168  28.002  49.550  0.00  0.00    +0.241 C 
ATOM     17  O   LYS A   8      31.731  28.246  50.614  0.00  0.00    -0.273 OA
ATOM     18  N   HIS A   9      30.489  28.936  48.894  0.00  0.00    -0.298 N 
ATOM     19  H   HIS A   9      30.013  28.697  48.001  0.00  0.00    +0.150 HD
BRANCH  18  20
ATOM     20  CA  HIS A   9      30.407  30.300  49.421  0.00  0.00    +0.143 C 
BRANCH  20  21
ATOM     21  C   HIS A   9      29.318  30.462  50.456  0.00  0.00    +0.227 C 
ATOM     22  O   HIS A   9      29.384  31.340  51.308  0.00  0.00    -0.286 OA
ENDBRANCH  20  21
BRANCH  20  23
ATOM     23  CB  HIS A   9      30.137  31.304  48.307  0.00  0.00    +0.075 C 
BRANCH  23  24
ATOM     24  CG  HIS A   9      31.147  31.264  47.214  0.00  0.00    +0.082 A 
ATOM     25  CD2 HIS A   9      32.493  31.418  47.235  0.00  0.00    +0.115 A 
ATOM     26  NE2 HIS A   9      32.935  31.255  45.948  0.00  0.00    -0.221 NA
ATOM     27  CE1 HIS A   9      31.901  31.021  45.164  0.00  0.00    +0.199 A 
ATOM     28  ND1 HIS A   9      30.810  31.009  45.901  0.00  0.00    -0.227 NA
ENDBRANCH  23  24
ENDBRANCH  20  23
ENDBRANCH  18  20
ENDBRANCH  15  16
BRANCH  15  29
ATOM     29  CB  LYS A   8      32.426  26.397  48.066  0.00  0.00    +0.029 C 
BRANCH  29  30
ATOM     30  CG  LYS A   8      32.464  27.372  46.920  0.00  0.00    +0.000 C 
BRANCH  30  31
ATOM     31  CD  LYS A   8      33.726  27.264  46.152  0.00  0.00    -0.024 C 
BRANCH  31  32
ATOM     32  CE  LYS A   8      33.642  26.202  45.097  0.00  0.00    -0.086 C 
BRANCH  32  33
ATOM     33  NZ  LYS A   8      34.928  26.180  44.267  0.00  0.00    +0.380 N 
ATOM     34  HZ1 LYS A   8      35.737  25.980  44.889  0.00  0.00    -0.089 HD
ATOM     35  HZ2 LYS A   8      35.060  27.105  43.810  0.00  0.00    -0.089 HD
ATOM     36  HZ3 LYS A   8      34.857  25.440  43.540  0.00  0.00    -0.089 HD
ENDBRANCH  32  33
ENDBRANCH  31  32
ENDBRANCH  30  31
ENDBRANCH  29  30
ENDBRANCH  15  29
ENDBRANCH  13  15
ENDBRANCH  10  11
BRANCH  10  37
ATOM     37  CB  THR A   7      27.516  24.330  48.069  0.00  0.00    +0.137 C 
ATOM     38  CG2 THR A   7      27.580  23.685  49.413  0.00  0.00    +0.034 C 
BRANCH  37  39
ATOM     39  OG1 THR A   7      26.271  23.930  47.485  0.00  0.00    -0.382 OA
ATOM     40  HG1 THR A   7      26.187  24.330  46.583  0.00  0.00    +0.210 HD
ENDBRANCH  37  39
ENDBRANCH  10  37
ENDBRANCH   8  10
ENDBRANCH   5   6
BRANCH   5  41
ATOM     41  CB  LEU A   6      29.075  27.943  44.402  0.00  0.00    +0.029 C 
BRANCH  41  42
ATOM     42  CG  LEU A   6      29.196  28.049  42.882  0.00  0.00    +0.002 C 
ATOM     43  CD2 LEU A   6      30.591  27.533  42.466  0.00  0.00    +0.000 C 
ATOM     44  CD1 LEU A   6      28.115  27.302  42.156  0.00  0.00    +0.000 C 
ENDBRANCH  41  42
ENDBRANCH   5  41
ENDBRANCH   3   5
BRANCH   1  45
ATOM     45  CA  CYS A   5      25.553  31.145  44.649  0.00  0.00    +0.160 C 
BRANCH  45  47
ATOM     46  C   CYS A   4      24.589  32.060  42.599  0.00  0.00    +0.242 C 
ATOM     47  N   CYS A   5      24.540  31.203  43.622  0.00  0.00    -0.296 N 
ATOM     48  H   CYS A   5      23.735  30.547  43.682  0.00  0.00    +0.150 HD
ATOM     49  O   CYS A   4      25.482  32.908  42.462  0.00  0.00    -0.273 OA
BRANCH  46  50
ATOM     50  CA  CYS A   4      23.447  31.931  41.591  0.00  0.00    +0.160 C 
BRANCH  50  53
ATOM     51  C   GLN A   3      22.060  33.948  41.761  0.00  0.00    +0.241 C 
ATOM     52  O   GLN A   3      21.452  33.534  42.734  0.00  0.00    -0.273 OA
ATOM     53  N   CYS A   4      23.012  33.243  41.115  0.00  0.00    -0.296 N 
ATOM     54  H   CYS A   4      23.446  33.642  40.259  0.00  0.00    +0.150 HD
BRANCH  51  55
ATOM     55  CA  GLN A   3      21.740  35.301  41.200  0.00  0.00    +0.149 C 
BRANCH  55  57
ATOM     56  C   SER A   2      20.025  35.717  39.544  0.00  0.00    +0.243 C 
ATOM     57  N   GLN A   3      20.358  35.268  40.751  0.00  0.00    -0.297 N 
ATOM     58  H   GLN A   3      19.622  34.889  41.380  0.00  0.00    +0.150 HD
ATOM     59  O   SER A   2      20.829  36.250  38.754  0.00  0.00    -0.273 OA
BRANCH  56  60
ATOM     60  CA  SER A   2      18.549  35.533  39.187  0.00  0.00    +0.178 C 
BRANCH  60  63
ATOM     61  C   VAL A   1      16.889  37.182  38.538  0.00  0.00    +0.238 C 
ATOM     62  O   VAL A   1      16.150  36.849  39.453  0.00  0.00    -0.274 OA
ATOM     63  N   SER A   2      18.063  36.589  38.293  0.00  0.00    -0.295 N 
ATOM     64  H   SER A   2      18.630  36.876  37.470  0.00  0.00    +0.150 HD
BRANCH  61  65
ATOM     65  CA  VAL A   1      16.472  38.281  37.555  0.00  0.00    +0.145 C 
BRANCH  65  66
ATOM     66  CB  VAL A   1      16.754  39.701  38.110  0.00  0.00    +0.025 C 
ATOM     67  CG2 VAL A   1      18.150  39.777  38.761  0.00  0.00    +0.002 C 
ATOM     68  CG1 VAL A   1      16.608  40.748  36.984  0.00  0.00    +0.002 C 
ENDBRANCH  65  66
BRANCH  65  69
ATOM     69  N   VAL A   1      15.063  38.126  37.177  0.00  0.00    -0.238 NA
ATOM     70  H   VAL A   1      14.376  38.851  37.467  0.00  0.00    +0.142 HD
ENDBRANCH  65  69
ENDBRANCH  61  65
ENDBRANCH  60  63
BRANCH  60  71
ATOM     71  CB  SER A   2      18.289  34.136  38.603  0.00  0.00    +0.166 C 
BRANCH  71  72
ATOM     72  OG  SER A   2      19.059  33.927  37.423  0.00  0.00    -0.380 OA
ATOM     73  H   SER A   2      18.814  34.606  36.746  0.00  0.00    +0.211 HD
ENDBRANCH  71  72
ENDBRANCH  60  71
ENDBRANCH  56  60
ENDBRANCH  55  57
BRANCH  55  74
ATOM     74  CB  GLN A   3      21.940  36.369  42.282  0.00  0.00    +0.039 C 
BRANCH  74  75
ATOM     75  CG  GLN A   3      23.384  36.469  42.807  0.00  0.00    +0.087 C 
BRANCH  75  76
ATOM     76  CD  GLN A   3      24.367  36.766  41.684  0.00  0.00    +0.219 C 
ATOM     77  NE2 GLN A   3      25.327  35.883  41.455  0.00  0.00    -0.329 N 
ATOM     78 HE21 GLN A   3      25.401  35.030  42.046  0.00  0.00    +0.145 HD
ATOM     79 HE22 GLN A   3      26.007  36.042  40.684  0.00  0.00    +0.145 HD
ATOM     80  OE1 GLN A   3      24.237  37.771  41.028  0.00  0.00    -0.275 OA
ENDBRANCH  75  76
ENDBRANCH  74  75
ENDBRANCH  55  74
ENDBRANCH  51  55
ENDBRANCH  50  53
BRANCH  50  81
ATOM     81  CB  CYS A   4      23.846  31.030  40.411  0.00  0.00    +0.098 C 
ATOM     82  SG  CYS A   4      22.513  30.688  39.277  0.00  0.00    -0.080 S 
ENDBRANCH  50  81
ENDBRANCH  46  50
ENDBRANCH  45  47
BRANCH  45  83
ATOM     83  CB  CYS A   5      25.037  31.779  45.939  0.00  0.00    +0.098 C 
ATOM     84  SG  CYS A   5      24.412  33.471  45.735  0.00  0.00    -0.080 S 
ENDBRANCH  45  83
ENDBRANCH   1  45
TORSDOF 37
REMARK  Name = ../refined-set-2016/4g0p/4g0p_pocket.pdb
REMARK  128 active torsions:
REMARK  status: ('A' for Active; 'I' for Inactive)
REMARK    1  A    between atoms: _1  and  _3
REMARK    2  A    between atoms: _3  and  _4
REMARK    3  A    between atoms: _3  and  _6
REMARK    4  A    between atoms: _6  and  _7
REMARK    5  A    between atoms: _10  and  _12
REMARK    6  A    between atoms: _12  and  _13
REMARK    7  A    between atoms: _12  and  _15
REMARK    8  A    between atoms: _15  and  _16
REMARK    9  A    between atoms: _19  and  _21
REMARK   10  A    between atoms: _21  and  _22
REMARK   11  A    between atoms: _21  and  _24
REMARK   12  A    between atoms: _27  and  _29
REMARK   13  A    between atoms: _29  and  _30
REMARK   14  A    between atoms: _29  and  _32
REMARK   15  A    between atoms: _32  and  _33
REMARK   16  A    between atoms: _37  and  _38
REMARK   17  A    between atoms: _43  and  _45
REMARK   18  A    between atoms: _45  and  _46
REMARK   19  A    between atoms: _45  and  _48
REMARK   20  A    between atoms: _48  and  _49
REMARK   21  A    between atoms: _52  and  _54
REMARK   22  A    between atoms: _54  and  _55
REMARK   23  A    between atoms: _54  and  _57
REMARK   24  A    between atoms: _57  and  _58
REMARK   25  A    between atoms: _63  and  _65
REMARK   26  A    between atoms: _65  and  _66
REMARK   27  A    between atoms: _65  and  _68
REMARK   28  A    between atoms: _68  and  _69
REMARK   29  A    between atoms: _74  and  _76
REMARK   30  A    between atoms: _76  and  _77
REMARK   31  A    between atoms: _79  and  _81
REMARK   32  A    between atoms: _81  and  _82
REMARK   33  A    between atoms: _81  and  _84
REMARK   34  A    between atoms: _84  and  _85
REMARK   35  A    between atoms: _87  and  _89
REMARK   36  A    between atoms: _89  and  _90
REMARK   37  A    between atoms: _89  and  _92
REMARK   38  A    between atoms: _92  and  _93
REMARK   39  A    between atoms: _96  and  _98
REMARK   40  A    between atoms: _98  and  _99
REMARK   41  A    between atoms: _98  and  _101
REMARK   42  A    between atoms: _101  and  _102
REMARK   43  A    between atoms: _107  and  _108
REMARK   44  A    between atoms: _110  and  _112
REMARK   45  A    between atoms: _112  and  _113
REMARK   46  A    between atoms: _115  and  _117
REMARK   47  A    between atoms: _117  and  _118
REMARK   48  A    between atoms: _117  and  _120
REMARK   49  A    between atoms: _120  and  _121
REMARK   50  A    between atoms: _124  and  _126
REMARK   51  A    between atoms: _126  and  _127
REMARK   52  A    between atoms: _126  and  _129
REMARK   53  A    between atoms: _129  and  _130
REMARK   54  A    between atoms: _133  and  _135
REMARK   55  A    between atoms: _135  and  _136
REMARK   56  A    between atoms: _135  and  _138
REMARK   57  A    between atoms: _138  and  _139
REMARK   58  A    between atoms: _139  and  _140
REMARK   59  A    between atoms: _140  and  _141
REMARK   60  A    between atoms: _141  and  _142
REMARK   61  A    between atoms: _146  and  _148
REMARK   62  A    between atoms: _148  and  _149
REMARK   63  A    between atoms: _148  and  _151
REMARK   64  A    between atoms: _151  and  _152
REMARK   65  A    between atoms: _152  and  _153
REMARK   66  A    between atoms: _156  and  _158
REMARK   67  A    between atoms: _158  and  _159
REMARK   68  A    between atoms: _158  and  _161
REMARK   69  A    between atoms: _164  and  _166
REMARK   70  A    between atoms: _166  and  _167
REMARK   71  A    between atoms: _166  and  _169
REMARK   72  A    between atoms: _169  and  _170
REMARK   73  A    between atoms: _172  and  _174
REMARK   74  A    between atoms: _174  and  _175
REMARK   75  A    between atoms: _174  and  _177
REMARK   76  A    between atoms: _177  and  _178
REMARK   77  A    between atoms: _178  and  _179
REMARK   78  A    between atoms: _184  and  _186
REMARK   79  A    between atoms: _186  and  _187
REMARK   80  A    between atoms: _186  and  _189
REMARK   81  A    between atoms: _191  and  _193
REMARK   82  A    between atoms: _193  and  _194
REMARK   83  A    between atoms: _193  and  _196
REMARK   84  A    between atoms: _198  and  _200
REMARK   85  A    between atoms: _200  and  _201
REMARK   86  A    between atoms: _200  and  _203
REMARK   87  A    between atoms: _203  and  _204
REMARK   88  A    between atoms: _207  and  _209
REMARK   89  A    between atoms: _209  and  _210
REMARK   90  A    between atoms: _209  and  _212
REMARK   91  A    between atoms: _212  and  _213
REMARK   92  A    between atoms: _216  and  _218
REMARK   93  A    between atoms: _218  and  _219
REMARK   94  A    between atoms: _218  and  _221
REMARK   95  A    between atoms: _221  and  _222
REMARK   96  A    between atoms: _222  and  _223
REMARK   97  A    between atoms: _223  and  _224
REMARK   98  A    between atoms: _224  and  _225
REMARK   99  A    between atoms: _229  and  _231
REMARK  100  A    between atoms: _231  and  _232
REMARK  101  A    between atoms: _231  and  _234
REMARK  102  A    between atoms: _234  and  _235
REMARK  103  A    between atoms: _240  and  _242
REMARK  104  A    between atoms: _242  and  _243
REMARK  105  A    between atoms: _242  and  _245
REMARK  106  A    between atoms: _245  and  _246
REMARK  107  A    between atoms: _251  and  _252
REMARK  108  A    between atoms: _254  and  _256
REMARK  109  A    between atoms: _256  and  _257
REMARK  110  A    between atoms: _256  and  _259
REMARK  111  A    between atoms: _262  and  _264
REMARK  112  A    between atoms: _264  and  _265
REMARK  113  A    between atoms: _264  and  _267
REMARK  114  A    between atoms: _267  and  _268
REMARK  115  A    between atoms: _268  and  _269
REMARK  116  A    between atoms: _269  and  _270
REMARK  117  A    between atoms: _270  and  _271
REMARK  118  A    between atoms: _275  and  _277
REMARK  119  A    between atoms: _277  and  _278
REMARK  120  A    between atoms: _277  and  _280
REMARK  121  A    between atoms: _280  and  _281
REMARK  122  A    between atoms: _284  and  _286
REMARK  123  A    between atoms: _286  and  _287
REMARK  124  A    between atoms: _286  and  _289
REMARK  125  A    between atoms: _289  and  _290
REMARK  126  A    between atoms: _290  and  _291
REMARK  127  A    between atoms: _291  and  _292
REMARK  128  A    between atoms: _292  and  _293
REMARK                            x       y       z     vdW  Elec       q    Type
REMARK                         _______ _______ _______ _____ _____    ______ ____
ROOT
ATOM      1  CG  TYR A   1      30.680  35.371  48.490  0.00  0.00    -0.020 A 
ATOM      2  CD2 TYR A   1      29.380  35.237  48.948  0.00  0.00    -0.001 A 
ATOM      3  CE2 TYR A   1      28.409  34.608  48.185  0.00  0.00    +0.036 A 
ATOM      4  CZ  TYR A   1      28.745  34.130  46.956  0.00  0.00    +0.134 A 
ATOM      5  CE1 TYR A   1      30.038  34.263  46.453  0.00  0.00    +0.036 A 
ATOM      6  CD1 TYR A   1      30.988  34.871  47.223  0.00  0.00    -0.001 A 
ENDROOT
BRANCH   4   7
ATOM      7  OH  TYR A   1      27.773  33.513  46.209  0.00  0.00    -0.506 OA
ATOM      8  HH  TYR A   1      28.159  33.219  45.346  0.00  0.00    +0.292 HD
ENDBRANCH   4   7
BRANCH   1   9
ATOM      9  CB  TYR A   1      31.744  36.070  49.347  0.00  0.00    +0.051 C 
BRANCH   9  10
ATOM     10  CA  TYR A   1      31.936  37.551  48.981  0.00  0.00    +0.137 C 
BRANCH  10  11
ATOM     11  N   TYR A   1      32.810  38.218  49.936  0.00  0.00    -0.239 NA
ATOM     12  H   TYR A   1      33.200  37.688  50.742  0.00  0.00    +0.142 HD
ENDBRANCH  10  11
BRANCH  10  13
ATOM     13  C   TYR A   1      30.583  38.289  48.909  0.00  0.00    +0.224 C 
ATOM     14  O   TYR A   1      30.119  38.675  47.818  0.00  0.00    -0.287 OA
ENDBRANCH  10  13
ENDBRANCH   9  10
ENDBRANCH   1   9
TORSDOF 5
REMARK  Name = ../refined-set-2016/4g0p/4g0p_pocket.pdb
REMARK  128 active torsions:
REMARK  status: ('A' for Active; 'I' for Inactive)
REMARK    1  A    between atoms: _1  and  _3
REMARK    2  A    between atoms: _3  and  _4
REMARK    3  A    between atoms: _3  and  _6
REMARK    4  A    between atoms: _6  and  _7
REMARK    5  A    between atoms: _10  and  _12
REMARK    6  A    between atoms: _12  and  _13
REMARK    7  A    between atoms: _12  and  _15
REMARK    8  A    between atoms: _15  and  _16
REMARK    9  A    between atoms: _19  and  _21
REMARK   10  A    between atoms: _21  and  _22
REMARK   11  A    between atoms: _21  and  _24
REMARK   12  A    between atoms: _27  and  _29
REMARK   13  A    between atoms: _29  and  _30
REMARK   14  A    between atoms: _29  and  _32
REMARK   15  A    between atoms: _32  and  _33
REMARK   16  A    between atoms: _37  and  _38
REMARK   17  A    between atoms: _43  and  _45
REMARK   18  A    between atoms: _45  and  _46
REMARK   19  A    between atoms: _45  and  _48
REMARK   20  A    between atoms: _48  and  _49
REMARK   21  A    between atoms: _52  and  _54
REMARK   22  A    between atoms: _54  and  _55
REMARK   23  A    between atoms: _54  and  _57
REMARK   24  A    between atoms: _57  and  _58
REMARK   25  A    between atoms: _63  and  _65
REMARK   26  A    between atoms: _65  and  _66
REMARK   27  A    between atoms: _65  and  _68
REMARK   28  A    between atoms: _68  and  _69
REMARK   29  A    between atoms: _74  and  _76
REMARK   30  A    between atoms: _76  and  _77
REMARK   31  A    between atoms: _79  and  _81
REMARK   32  A    between atoms: _81  and  _82
REMARK   33  A    between atoms: _81  and  _84
REMARK   34  A    between atoms: _84  and  _85
REMARK   35  A    between atoms: _87  and  _89
REMARK   36  A    between atoms: _89  and  _90
REMARK   37  A    between atoms: _89  and  _92
REMARK   38  A    between atoms: _92  and  _93
REMARK   39  A    between atoms: _96  and  _98
REMARK   40  A    between atoms: _98  and  _99
REMARK   41  A    between atoms: _98  and  _101
REMARK   42  A    between atoms: _101  and  _102
REMARK   43  A    between atoms: _107  and  _108
REMARK   44  A    between atoms: _110  and  _112
REMARK   45  A    between atoms: _112  and  _113
REMARK   46  A    between atoms: _115  and  _117
REMARK   47  A    between atoms: _117  and  _118
REMARK   48  A    between atoms: _117  and  _120
REMARK   49  A    between atoms: _120  and  _121
REMARK   50  A    between atoms: _124  and  _126
REMARK   51  A    between atoms: _126  and  _127
REMARK   52  A    between atoms: _126  and  _129
REMARK   53  A    between atoms: _129  and  _130
REMARK   54  A    between atoms: _133  and  _135
REMARK   55  A    between atoms: _135  and  _136
REMARK   56  A    between atoms: _135  and  _138
REMARK   57  A    between atoms: _138  and  _139
REMARK   58  A    between atoms: _139  and  _140
REMARK   59  A    between atoms: _140  and  _141
REMARK   60  A    between atoms: _141  and  _142
REMARK   61  A    between atoms: _146  and  _148
REMARK   62  A    between atoms: _148  and  _149
REMARK   63  A    between atoms: _148  and  _151
REMARK   64  A    between atoms: _151  and  _152
REMARK   65  A    between atoms: _152  and  _153
REMARK   66  A    between atoms: _156  and  _158
REMARK   67  A    between atoms: _158  and  _159
REMARK   68  A    between atoms: _158  and  _161
REMARK   69  A    between atoms: _164  and  _166
REMARK   70  A    between atoms: _166  and  _167
REMARK   71  A    between atoms: _166  and  _169
REMARK   72  A    between atoms: _169  and  _170
REMARK   73  A    between atoms: _172  and  _174
REMARK   74  A    between atoms: _174  and  _175
REMARK   75  A    between atoms: _174  and  _177
REMARK   76  A    between atoms: _177  and  _178
REMARK   77  A    between atoms: _178  and  _179
REMARK   78  A    between atoms: _184  and  _186
REMARK   79  A    between atoms: _186  and  _187
REMARK   80  A    between atoms: _186  and  _189
REMARK   81  A    between atoms: _191  and  _193
REMARK   82  A    between atoms: _193  and  _194
REMARK   83  A    between atoms: _193  and  _196
REMARK   84  A    between atoms: _198  and  _200
REMARK   85  A    between atoms: _200  and  _201
REMARK   86  A    between atoms: _200  and  _203
REMARK   87  A    between atoms: _203  and  _204
REMARK   88  A    between atoms: _207  and  _209
REMARK   89  A    between atoms: _209  and  _210
REMARK   90  A    between atoms: _209  and  _212
REMARK   91  A    between atoms: _212  and  _213
REMARK   92  A    between atoms: _216  and  _218
REMARK   93  A    between atoms: _218  and  _219
REMARK   94  A    between atoms: _218  and  _221
REMARK   95  A    between atoms: _221  and  _222
REMARK   96  A    between atoms: _222  and  _223
REMARK   97  A    between atoms: _223  and  _224
REMARK   98  A    between atoms: _224  and  _225
REMARK   99  A    between atoms: _229  and  _231
REMARK  100  A    between atoms: _231  and  _232
REMARK  101  A    between atoms: _231  and  _234
REMARK  102  A    between atoms: _234  and  _235
REMARK  103  A    between atoms: _240  and  _242
REMARK  104  A    between atoms: _242  and  _243
REMARK  105  A    between atoms: _242  and  _245
REMARK  106  A    between atoms: _245  and  _246
REMARK  107  A    between atoms: _251  and  _252
REMARK  108  A    between atoms: _254  and  _256
REMARK  109  A    between atoms: _256  and  _257
REMARK  110  A    between atoms: _256  and  _259
REMARK  111  A    between atoms: _262  and  _264
REMARK  112  A    between atoms: _264  and  _265
REMARK  113  A    between atoms: _264  and  _267
REMARK  114  A    between atoms: _267  and  _268
REMARK  115  A    between atoms: _268  and  _269
REMARK  116  A    between atoms: _269  and  _270
REMARK  117  A    between atoms: _270  and  _271
REMARK  118  A    between atoms: _275  and  _277
REMARK  119  A    between atoms: _277  and  _278
REMARK  120  A    between atoms: _277  and  _280
REMARK  121  A    between atoms: _280  and  _281
REMARK  122  A    between atoms: _284  and  _286
REMARK  123  A    between atoms: _286  and  _287
REMARK  124  A    between atoms: _286  and  _289
REMARK  125  A    between atoms: _289  and  _290
REMARK  126  A    between atoms: _290  and  _291
REMARK  127  A    between atoms: _291  and  _292
REMARK  128  A    between atoms: _292  and  _293
REMARK                            x       y       z     vdW  Elec       q    Type
REMARK                         _______ _______ _______ _____ _____    ______ ____
ROOT
ATOM      1  CA  VAL A   1      27.482  39.527  45.092  0.00  0.00    +0.133 C 
ENDROOT
BRANCH   1   2
ATOM      2  CB  VAL A   1      26.957  38.239  45.741  0.00  0.00    +0.023 C 
ATOM      3  CG2 VAL A   1      27.958  37.100  45.539  0.00  0.00    +0.002 C 
ATOM      4  CG1 VAL A   1      25.589  37.854  45.103  0.00  0.00    +0.002 C 
ENDBRANCH   1   2
BRANCH   1   5
ATOM      5  N   VAL A   1      28.748  39.986  45.650  0.00  0.00    -0.239 NA
ATOM      6  H   VAL A   1      29.093  39.622  46.561  0.00  0.00    +0.142 HD
ENDBRANCH   1   5
BRANCH   1   7
ATOM      7  C   VAL A   1      26.429  40.647  45.121  0.00  0.00    +0.224 C 
ATOM      8  O   VAL A   1      25.627  40.762  44.190  0.00  0.00    -0.287 OA
ENDBRANCH   1   7
TORSDOF 3
REMARK  Name = ../refined-set-2016/4g0p/4g0p_pocket.pdb
REMARK  128 active torsions:
REMARK  status: ('A' for Active; 'I' for Inactive)
REMARK    1  A    between atoms: _1  and  _3
REMARK    2  A    between atoms: _3  and  _4
REMARK    3  A    between atoms: _3  and  _6
REMARK    4  A    between atoms: _6  and  _7
REMARK    5  A    between atoms: _10  and  _12
REMARK    6  A    between atoms: _12  and  _13
REMARK    7  A    between atoms: _12  and  _15
REMARK    8  A    between atoms: _15  and  _16
REMARK    9  A    between atoms: _19  and  _21
REMARK   10  A    between atoms: _21  and  _22
REMARK   11  A    between atoms: _21  and  _24
REMARK   12  A    between atoms: _27  and  _29
REMARK   13  A    between atoms: _29  and  _30
REMARK   14  A    between atoms: _29  and  _32
REMARK   15  A    between atoms: _32  and  _33
REMARK   16  A    between atoms: _37  and  _38
REMARK   17  A    between atoms: _43  and  _45
REMARK   18  A    between atoms: _45  and  _46
REMARK   19  A    between atoms: _45  and  _48
REMARK   20  A    between atoms: _48  and  _49
REMARK   21  A    between atoms: _52  and  _54
REMARK   22  A    between atoms: _54  and  _55
REMARK   23  A    between atoms: _54  and  _57
REMARK   24  A    between atoms: _57  and  _58
REMARK   25  A    between atoms: _63  and  _65
REMARK   26  A    between atoms: _65  and  _66
REMARK   27  A    between atoms: _65  and  _68
REMARK   28  A    between atoms: _68  and  _69
REMARK   29  A    between atoms: _74  and  _76
REMARK   30  A    between atoms: _76  and  _77
REMARK   31  A    between atoms: _79  and  _81
REMARK   32  A    between atoms: _81  and  _82
REMARK   33  A    between atoms: _81  and  _84
REMARK   34  A    between atoms: _84  and  _85
REMARK   35  A    between atoms: _87  and  _89
REMARK   36  A    between atoms: _89  and  _90
REMARK   37  A    between atoms: _89  and  _92
REMARK   38  A    between atoms: _92  and  _93
REMARK   39  A    between atoms: _96  and  _98
REMARK   40  A    between atoms: _98  and  _99
REMARK   41  A    between atoms: _98  and  _101
REMARK   42  A    between atoms: _101  and  _102
REMARK   43  A    between atoms: _107  and  _108
REMARK   44  A    between atoms: _110  and  _112
REMARK   45  A    between atoms: _112  and  _113
REMARK   46  A    between atoms: _115  and  _117
REMARK   47  A    between atoms: _117  and  _118
REMARK   48  A    between atoms: _117  and  _120
REMARK   49  A    between atoms: _120  and  _121
REMARK   50  A    between atoms: _124  and  _126
REMARK   51  A    between atoms: _126  and  _127
REMARK   52  A    between atoms: _126  and  _129
REMARK   53  A    between atoms: _129  and  _130
REMARK   54  A    between atoms: _133  and  _135
REMARK   55  A    between atoms: _135  and  _136
REMARK   56  A    between atoms: _135  and  _138
REMARK   57  A    between atoms: _138  and  _139
REMARK   58  A    between atoms: _139  and  _140
REMARK   59  A    between atoms: _140  and  _141
REMARK   60  A    between atoms: _141  and  _142
REMARK   61  A    between atoms: _146  and  _148
REMARK   62  A    between atoms: _148  and  _149
REMARK   63  A    between atoms: _148  and  _151
REMARK   64  A    between atoms: _151  and  _152
REMARK   65  A    between atoms: _152  and  _153
REMARK   66  A    between atoms: _156  and  _158
REMARK   67  A    between atoms: _158  and  _159
REMARK   68  A    between atoms: _158  and  _161
REMARK   69  A    between atoms: _164  and  _166
REMARK   70  A    between atoms: _166  and  _167
REMARK   71  A    between atoms: _166  and  _169
REMARK   72  A    between atoms: _169  and  _170
REMARK   73  A    between atoms: _172  and  _174
REMARK   74  A    between atoms: _174  and  _175
REMARK   75  A    between atoms: _174  and  _177
REMARK   76  A    between atoms: _177  and  _178
REMARK   77  A    between atoms: _178  and  _179
REMARK   78  A    between atoms: _184  and  _186
REMARK   79  A    between atoms: _186  and  _187
REMARK   80  A    between atoms: _186  and  _189
REMARK   81  A    between atoms: _191  and  _193
REMARK   82  A    between atoms: _193  and  _194
REMARK   83  A    between atoms: _193  and  _196
REMARK   84  A    between atoms: _198  and  _200
REMARK   85  A    between atoms: _200  and  _201
REMARK   86  A    between atoms: _200  and  _203
REMARK   87  A    between atoms: _203  and  _204
REMARK   88  A    between atoms: _207  and  _209
REMARK   89  A    between atoms: _209  and  _210
REMARK   90  A    between atoms: _209  and  _212
REMARK   91  A    between atoms: _212  and  _213
REMARK   92  A    between atoms: _216  and  _218
REMARK   93  A    between atoms: _218  and  _219
REMARK   94  A    between atoms: _218  and  _221
REMARK   95  A    between atoms: _221  and  _222
REMARK   96  A    between atoms: _222  and  _223
REMARK   97  A    between atoms: _223  and  _224
REMARK   98  A    between atoms: _224  and  _225
REMARK   99  A    between atoms: _229  and  _231
REMARK  100  A    between atoms: _231  and  _232
REMARK  101  A    between atoms: _231  and  _234
REMARK  102  A    between atoms: _234  and  _235
REMARK  103  A    between atoms: _240  and  _242
REMARK  104  A    between atoms: _242  and  _243
REMARK  105  A    between atoms: _242  and  _245
REMARK  106  A    between atoms: _245  and  _246
REMARK  107  A    between atoms: _251  and  _252
REMARK  108  A    between atoms: _254  and  _256
REMARK  109  A    between atoms: _256  and  _257
REMARK  110  A    between atoms: _256  and  _259
REMARK  111  A    between atoms: _262  and  _264
REMARK  112  A    between atoms: _264  and  _265
REMARK  113  A    between atoms: _264  and  _267
REMARK  114  A    between atoms: _267  and  _268
REMARK  115  A    between atoms: _268  and  _269
REMARK  116  A    between atoms: _269  and  _270
REMARK  117  A    between atoms: _270  and  _271
REMARK  118  A    between atoms: _275  and  _277
REMARK  119  A    between atoms: _277  and  _278
REMARK  120  A    between atoms: _277  and  _280
REMARK  121  A    between atoms: _280  and  _281
REMARK  122  A    between atoms: _284  and  _286
REMARK  123  A    between atoms: _286  and  _287
REMARK  124  A    between atoms: _286  and  _289
REMARK  125  A    between atoms: _289  and  _290
REMARK  126  A    between atoms: _290  and  _291
REMARK  127  A    between atoms: _291  and  _292
REMARK  128  A    between atoms: _292  and  _293
REMARK                            x       y       z     vdW  Elec       q    Type
REMARK                         _______ _______ _______ _____ _____    ______ ____
ROOT
ATOM      1  CA  LYS A   1      26.272  41.886  40.786  0.00  0.00    +0.145 C 
ENDROOT
BRANCH   1   2
ATOM      2  C   LYS A   1      24.750  42.070  40.758  0.00  0.00    +0.238 C 
ATOM      3  N   ILE A   2      24.117  41.774  41.889  0.00  0.00    -0.298 N 
ATOM      4  H   ILE A   2      24.664  41.377  42.680  0.00  0.00    +0.150 HD
ATOM      5  O   LYS A   1      24.176  42.491  39.757  0.00  0.00    -0.274 OA
BRANCH   3   6
ATOM      6  CA  ILE A   2      22.679  41.986  42.062  0.00  0.00    +0.137 C 
BRANCH   6   7
ATOM      7  CB  ILE A   2      22.240  41.670  43.516  0.00  0.00    +0.026 C 
ATOM      8  CG2 ILE A   2      20.845  42.203  43.789  0.00  0.00    +0.002 C 
BRANCH   7   9
ATOM      9  CG1 ILE A   2      22.287  40.162  43.767  0.00  0.00    +0.002 C 
ATOM     10  CD1 ILE A   2      22.073  39.778  45.266  0.00  0.00    +0.000 C 
ENDBRANCH   7   9
ENDBRANCH   6   7
BRANCH   6  11
ATOM     11  C   ILE A   2      22.267  43.401  41.689  0.00  0.00    +0.227 C 
ATOM     12  O   ILE A   2      21.307  43.608  40.947  0.00  0.00    -0.286 OA
ENDBRANCH   6  11
ENDBRANCH   3   6
ENDBRANCH   1   2
BRANCH   1  13
ATOM     13  N   LYS A   1      26.898  42.591  41.925  0.00  0.00    -0.238 NA
ATOM     14  H   LYS A   1      27.442  42.031  42.612  0.00  0.00    +0.142 HD
ENDBRANCH   1  13
BRANCH   1  15
ATOM     15  CB  LYS A   1      26.591  40.390  40.825  0.00  0.00    +0.026 C 
BRANCH  15  16
ATOM     16  CG  LYS A   1      28.016  40.014  40.473  0.00  0.00    -0.000 C 
BRANCH  16  17
ATOM     17  CD  LYS A   1      28.134  38.533  40.035  0.00  0.00    -0.024 C 
BRANCH  17  18
ATOM     18  CE  LYS A   1      27.543  38.293  38.595  0.00  0.00    -0.086 C 
BRANCH  18  19
ATOM     19  NZ  LYS A   1      28.090  36.975  38.024  0.00  0.00    +0.380 N 
ATOM     20  HZ1 LYS A   1      27.815  36.188  38.646  0.00  0.00    -0.089 HD
ATOM     21  HZ2 LYS A   1      29.127  37.027  37.968  0.00  0.00    -0.089 HD
ATOM     22  HZ3 LYS A   1      27.697  36.821  37.073  0.00  0.00    -0.089 HD
ENDBRANCH  18  19
ENDBRANCH  17  18
ENDBRANCH  16  17
ENDBRANCH  15  16
ENDBRANCH   1  15
TORSDOF 11
REMARK  Name = ../refined-set-2016/4g0p/4g0p_pocket.pdb
REMARK  128 active torsions:
REMARK  status: ('A' for Active; 'I' for Inactive)
REMARK    1  A    between atoms: _1  and  _3
REMARK    2  A    between atoms: _3  and  _4
REMARK    3  A    between atoms: _3  and  _6
REMARK    4  A    between atoms: _6  and  _7
REMARK    5  A    between atoms: _10  and  _12
REMARK    6  A    between atoms: _12  and  _13
REMARK    7  A    between atoms: _12  and  _15
REMARK    8  A    between atoms: _15  and  _16
REMARK    9  A    between atoms: _19  and  _21
REMARK   10  A    between atoms: _21  and  _22
REMARK   11  A    between atoms: _21  and  _24
REMARK   12  A    between atoms: _27  and  _29
REMARK   13  A    between atoms: _29  and  _30
REMARK   14  A    between atoms: _29  and  _32
REMARK   15  A    between atoms: _32  and  _33
REMARK   16  A    between atoms: _37  and  _38
REMARK   17  A    between atoms: _43  and  _45
REMARK   18  A    between atoms: _45  and  _46
REMARK   19  A    between atoms: _45  and  _48
REMARK   20  A    between atoms: _48  and  _49
REMARK   21  A    between atoms: _52  and  _54
REMARK   22  A    between atoms: _54  and  _55
REMARK   23  A    between atoms: _54  and  _57
REMARK   24  A    between atoms: _57  and  _58
REMARK   25  A    between atoms: _63  and  _65
REMARK   26  A    between atoms: _65  and  _66
REMARK   27  A    between atoms: _65  and  _68
REMARK   28  A    between atoms: _68  and  _69
REMARK   29  A    between atoms: _74  and  _76
REMARK   30  A    between atoms: _76  and  _77
REMARK   31  A    between atoms: _79  and  _81
REMARK   32  A    between atoms: _81  and  _82
REMARK   33  A    between atoms: _81  and  _84
REMARK   34  A    between atoms: _84  and  _85
REMARK   35  A    between atoms: _87  and  _89
REMARK   36  A    between atoms: _89  and  _90
REMARK   37  A    between atoms: _89  and  _92
REMARK   38  A    between atoms: _92  and  _93
REMARK   39  A    between atoms: _96  and  _98
REMARK   40  A    between atoms: _98  and  _99
REMARK   41  A    between atoms: _98  and  _101
REMARK   42  A    between atoms: _101  and  _102
REMARK   43  A    between atoms: _107  and  _108
REMARK   44  A    between atoms: _110  and  _112
REMARK   45  A    between atoms: _112  and  _113
REMARK   46  A    between atoms: _115  and  _117
REMARK   47  A    between atoms: _117  and  _118
REMARK   48  A    between atoms: _117  and  _120
REMARK   49  A    between atoms: _120  and  _121
REMARK   50  A    between atoms: _124  and  _126
REMARK   51  A    between atoms: _126  and  _127
REMARK   52  A    between atoms: _126  and  _129
REMARK   53  A    between atoms: _129  and  _130
REMARK   54  A    between atoms: _133  and  _135
REMARK   55  A    between atoms: _135  and  _136
REMARK   56  A    between atoms: _135  and  _138
REMARK   57  A    between atoms: _138  and  _139
REMARK   58  A    between atoms: _139  and  _140
REMARK   59  A    between atoms: _140  and  _141
REMARK   60  A    between atoms: _141  and  _142
REMARK   61  A    between atoms: _146  and  _148
REMARK   62  A    between atoms: _148  and  _149
REMARK   63  A    between atoms: _148  and  _151
REMARK   64  A    between atoms: _151  and  _152
REMARK   65  A    between atoms: _152  and  _153
REMARK   66  A    between atoms: _156  and  _158
REMARK   67  A    between atoms: _158  and  _159
REMARK   68  A    between atoms: _158  and  _161
REMARK   69  A    between atoms: _164  and  _166
REMARK   70  A    between atoms: _166  and  _167
REMARK   71  A    between atoms: _166  and  _169
REMARK   72  A    between atoms: _169  and  _170
REMARK   73  A    between atoms: _172  and  _174
REMARK   74  A    between atoms: _174  and  _175
REMARK   75  A    between atoms: _174  and  _177
REMARK   76  A    between atoms: _177  and  _178
REMARK   77  A    between atoms: _178  and  _179
REMARK   78  A    between atoms: _184  and  _186
REMARK   79  A    between atoms: _186  and  _187
REMARK   80  A    between atoms: _186  and  _189
REMARK   81  A    between atoms: _191  and  _193
REMARK   82  A    between atoms: _193  and  _194
REMARK   83  A    between atoms: _193  and  _196
REMARK   84  A    between atoms: _198  and  _200
REMARK   85  A    between atoms: _200  and  _201
REMARK   86  A    between atoms: _200  and  _203
REMARK   87  A    between atoms: _203  and  _204
REMARK   88  A    between atoms: _207  and  _209
REMARK   89  A    between atoms: _209  and  _210
REMARK   90  A    between atoms: _209  and  _212
REMARK   91  A    between atoms: _212  and  _213
REMARK   92  A    between atoms: _216  and  _218
REMARK   93  A    between atoms: _218  and  _219
REMARK   94  A    between atoms: _218  and  _221
REMARK   95  A    between atoms: _221  and  _222
REMARK   96  A    between atoms: _222  and  _223
REMARK   97  A    between atoms: _223  and  _224
REMARK   98  A    between atoms: _224  and  _225
REMARK   99  A    between atoms: _229  and  _231
REMARK  100  A    between atoms: _231  and  _232
REMARK  101  A    between atoms: _231  and  _234
REMARK  102  A    between atoms: _234  and  _235
REMARK  103  A    between atoms: _240  and  _242
REMARK  104  A    between atoms: _242  and  _243
REMARK  105  A    between atoms: _242  and  _245
REMARK  106  A    between atoms: _245  and  _246
REMARK  107  A    between atoms: _251  and  _252
REMARK  108  A    between atoms: _254  and  _256
REMARK  109  A    between atoms: _256  and  _257
REMARK  110  A    between atoms: _256  and  _259
REMARK  111  A    between atoms: _262  and  _264
REMARK  112  A    between atoms: _264  and  _265
REMARK  113  A    between atoms: _264  and  _267
REMARK  114  A    between atoms: _267  and  _268
REMARK  115  A    between atoms: _268  and  _269
REMARK  116  A    between atoms: _269  and  _270
REMARK  117  A    between atoms: _270  and  _271
REMARK  118  A    between atoms: _275  and  _277
REMARK  119  A    between atoms: _277  and  _278
REMARK  120  A    between atoms: _277  and  _280
REMARK  121  A    between atoms: _280  and  _281
REMARK  122  A    between atoms: _284  and  _286
REMARK  123  A    between atoms: _286  and  _287
REMARK  124  A    between atoms: _286  and  _289
REMARK  125  A    between atoms: _289  and  _290
REMARK  126  A    between atoms: _290  and  _291
REMARK  127  A    between atoms: _291  and  _292
REMARK  128  A    between atoms: _292  and  _293
REMARK                            x       y       z     vdW  Elec       q    Type
REMARK                         _______ _______ _______ _____ _____    ______ ____
ROOT
ATOM      1  CG  LYS A   1      22.078  40.828  37.452  0.00  0.00    -0.000 C 
ENDROOT
BRANCH   1   2
ATOM      2  CB  LYS A   1      21.068  41.777  38.103  0.00  0.00    +0.025 C 
BRANCH   2   3
ATOM      3  CA  LYS A   1      21.087  43.172  37.489  0.00  0.00    +0.133 C 
BRANCH   3   4
ATOM      4  N   LYS A   1      22.093  44.007  38.130  0.00  0.00    -0.239 NA
ATOM      5  H   LYS A   1      22.616  43.632  38.947  0.00  0.00    +0.142 HD
ENDBRANCH   3   4
BRANCH   3   6
ATOM      6  C   LYS A   1      19.715  43.768  37.629  0.00  0.00    +0.224 C 
ATOM      7  O   LYS A   1      18.897  43.644  36.729  0.00  0.00    -0.287 OA
ENDBRANCH   3   6
ENDBRANCH   2   3
ENDBRANCH   1   2
BRANCH   1   8
ATOM      8  CD  LYS A   1      22.332  39.653  38.364  0.00  0.00    -0.024 C 
BRANCH   8   9
ATOM      9  CE  LYS A   1      23.345  38.764  37.723  0.00  0.00    -0.086 C 
BRANCH   9  10
ATOM     10  NZ  LYS A   1      23.570  37.579  38.541  0.00  0.00    +0.380 N 
ATOM     11  HZ1 LYS A   1      23.916  37.867  39.479  0.00  0.00    -0.089 HD
ATOM     12  HZ2 LYS A   1      22.677  37.056  38.645  0.00  0.00    -0.089 HD
ATOM     13  HZ3 LYS A   1      24.277  36.971  38.081  0.00  0.00    -0.089 HD
ENDBRANCH   9  10
ENDBRANCH   8   9
ENDBRANCH   1   8
TORSDOF 7
REMARK  Name = ../refined-set-2016/4g0p/4g0p_pocket.pdb
REMARK  128 active torsions:
REMARK  status: ('A' for Active; 'I' for Inactive)
REMARK    1  A    between atoms: _1  and  _3
REMARK    2  A    between atoms: _3  and  _4
REMARK    3  A    between atoms: _3  and  _6
REMARK    4  A    between atoms: _6  and  _7
REMARK    5  A    between atoms: _10  and  _12
REMARK    6  A    between atoms: _12  and  _13
REMARK    7  A    between atoms: _12  and  _15
REMARK    8  A    between atoms: _15  and  _16
REMARK    9  A    between atoms: _19  and  _21
REMARK   10  A    between atoms: _21  and  _22
REMARK   11  A    between atoms: _21  and  _24
REMARK   12  A    between atoms: _27  and  _29
REMARK   13  A    between atoms: _29  and  _30
REMARK   14  A    between atoms: _29  and  _32
REMARK   15  A    between atoms: _32  and  _33
REMARK   16  A    between atoms: _37  and  _38
REMARK   17  A    between atoms: _43  and  _45
REMARK   18  A    between atoms: _45  and  _46
REMARK   19  A    between atoms: _45  and  _48
REMARK   20  A    between atoms: _48  and  _49
REMARK   21  A    between atoms: _52  and  _54
REMARK   22  A    between atoms: _54  and  _55
REMARK   23  A    between atoms: _54  and  _57
REMARK   24  A    between atoms: _57  and  _58
REMARK   25  A    between atoms: _63  and  _65
REMARK   26  A    between atoms: _65  and  _66
REMARK   27  A    between atoms: _65  and  _68
REMARK   28  A    between atoms: _68  and  _69
REMARK   29  A    between atoms: _74  and  _76
REMARK   30  A    between atoms: _76  and  _77
REMARK   31  A    between atoms: _79  and  _81
REMARK   32  A    between atoms: _81  and  _82
REMARK   33  A    between atoms: _81  and  _84
REMARK   34  A    between atoms: _84  and  _85
REMARK   35  A    between atoms: _87  and  _89
REMARK   36  A    between atoms: _89  and  _90
REMARK   37  A    between atoms: _89  and  _92
REMARK   38  A    between atoms: _92  and  _93
REMARK   39  A    between atoms: _96  and  _98
REMARK   40  A    between atoms: _98  and  _99
REMARK   41  A    between atoms: _98  and  _101
REMARK   42  A    between atoms: _101  and  _102
REMARK   43  A    between atoms: _107  and  _108
REMARK   44  A    between atoms: _110  and  _112
REMARK   45  A    between atoms: _112  and  _113
REMARK   46  A    between atoms: _115  and  _117
REMARK   47  A    between atoms: _117  and  _118
REMARK   48  A    between atoms: _117  and  _120
REMARK   49  A    between atoms: _120  and  _121
REMARK   50  A    between atoms: _124  and  _126
REMARK   51  A    between atoms: _126  and  _127
REMARK   52  A    between atoms: _126  and  _129
REMARK   53  A    between atoms: _129  and  _130
REMARK   54  A    between atoms: _133  and  _135
REMARK   55  A    between atoms: _135  and  _136
REMARK   56  A    between atoms: _135  and  _138
REMARK   57  A    between atoms: _138  and  _139
REMARK   58  A    between atoms: _139  and  _140
REMARK   59  A    between atoms: _140  and  _141
REMARK   60  A    between atoms: _141  and  _142
REMARK   61  A    between atoms: _146  and  _148
REMARK   62  A    between atoms: _148  and  _149
REMARK   63  A    between atoms: _148  and  _151
REMARK   64  A    between atoms: _151  and  _152
REMARK   65  A    between atoms: _152  and  _153
REMARK   66  A    between atoms: _156  and  _158
REMARK   67  A    between atoms: _158  and  _159
REMARK   68  A    between atoms: _158  and  _161
REMARK   69  A    between atoms: _164  and  _166
REMARK   70  A    between atoms: _166  and  _167
REMARK   71  A    between atoms: _166  and  _169
REMARK   72  A    between atoms: _169  and  _170
REMARK   73  A    between atoms: _172  and  _174
REMARK   74  A    between atoms: _174  and  _175
REMARK   75  A    between atoms: _174  and  _177
REMARK   76  A    between atoms: _177  and  _178
REMARK   77  A    between atoms: _178  and  _179
REMARK   78  A    between atoms: _184  and  _186
REMARK   79  A    between atoms: _186  and  _187
REMARK   80  A    between atoms: _186  and  _189
REMARK   81  A    between atoms: _191  and  _193
REMARK   82  A    between atoms: _193  and  _194
REMARK   83  A    between atoms: _193  and  _196
REMARK   84  A    between atoms: _198  and  _200
REMARK   85  A    between atoms: _200  and  _201
REMARK   86  A    between atoms: _200  and  _203
REMARK   87  A    between atoms: _203  and  _204
REMARK   88  A    between atoms: _207  and  _209
REMARK   89  A    between atoms: _209  and  _210
REMARK   90  A    between atoms: _209  and  _212
REMARK   91  A    between atoms: _212  and  _213
REMARK   92  A    between atoms: _216  and  _218
REMARK   93  A    between atoms: _218  and  _219
REMARK   94  A    between atoms: _218  and  _221
REMARK   95  A    between atoms: _221  and  _222
REMARK   96  A    between atoms: _222  and  _223
REMARK   97  A    between atoms: _223  and  _224
REMARK   98  A    between atoms: _224  and  _225
REMARK   99  A    between atoms: _229  and  _231
REMARK  100  A    between atoms: _231  and  _232
REMARK  101  A    between atoms: _231  and  _234
REMARK  102  A    between atoms: _234  and  _235
REMARK  103  A    between atoms: _240  and  _242
REMARK  104  A    between atoms: _242  and  _243
REMARK  105  A    between atoms: _242  and  _245
REMARK  106  A    between atoms: _245  and  _246
REMARK  107  A    between atoms: _251  and  _252
REMARK  108  A    between atoms: _254  and  _256
REMARK  109  A    between atoms: _256  and  _257
REMARK  110  A    between atoms: _256  and  _259
REMARK  111  A    between atoms: _262  and  _264
REMARK  112  A    between atoms: _264  and  _265
REMARK  113  A    between atoms: _264  and  _267
REMARK  114  A    between atoms: _267  and  _268
REMARK  115  A    between atoms: _268  and  _269
REMARK  116  A    between atoms: _269  and  _270
REMARK  117  A    between atoms: _270  and  _271
REMARK  118  A    between atoms: _275  and  _277
REMARK  119  A    between atoms: _277  and  _278
REMARK  120  A    between atoms: _277  and  _280
REMARK  121  A    between atoms: _280  and  _281
REMARK  122  A    between atoms: _284  and  _286
REMARK  123  A    between atoms: _286  and  _287
REMARK  124  A    between atoms: _286  and  _289
REMARK  125  A    between atoms: _289  and  _290
REMARK  126  A    between atoms: _290  and  _291
REMARK  127  A    between atoms: _291  and  _292
REMARK  128  A    between atoms: _292  and  _293
REMARK                            x       y       z     vdW  Elec       q    Type
REMARK                         _______ _______ _______ _____ _____    ______ ____
ROOT
ATOM      1  O   HOH     1      25.435  24.716  33.104  0.00  0.00    +0.000 OA
ENDROOT
TORSDOF 0
REMARK  Name = ../refined-set-2016/4g0p/4g0p_pocket.pdb
REMARK  128 active torsions:
REMARK  status: ('A' for Active; 'I' for Inactive)
REMARK    1  A    between atoms: _1  and  _3
REMARK    2  A    between atoms: _3  and  _4
REMARK    3  A    between atoms: _3  and  _6
REMARK    4  A    between atoms: _6  and  _7
REMARK    5  A    between atoms: _10  and  _12
REMARK    6  A    between atoms: _12  and  _13
REMARK    7  A    between atoms: _12  and  _15
REMARK    8  A    between atoms: _15  and  _16
REMARK    9  A    between atoms: _19  and  _21
REMARK   10  A    between atoms: _21  and  _22
REMARK   11  A    between atoms: _21  and  _24
REMARK   12  A    between atoms: _27  and  _29
REMARK   13  A    between atoms: _29  and  _30
REMARK   14  A    between atoms: _29  and  _32
REMARK   15  A    between atoms: _32  and  _33
REMARK   16  A    between atoms: _37  and  _38
REMARK   17  A    between atoms: _43  and  _45
REMARK   18  A    between atoms: _45  and  _46
REMARK   19  A    between atoms: _45  and  _48
REMARK   20  A    between atoms: _48  and  _49
REMARK   21  A    between atoms: _52  and  _54
REMARK   22  A    between atoms: _54  and  _55
REMARK   23  A    between atoms: _54  and  _57
REMARK   24  A    between atoms: _57  and  _58
REMARK   25  A    between atoms: _63  and  _65
REMARK   26  A    between atoms: _65  and  _66
REMARK   27  A    between atoms: _65  and  _68
REMARK   28  A    between atoms: _68  and  _69
REMARK   29  A    between atoms: _74  and  _76
REMARK   30  A    between atoms: _76  and  _77
REMARK   31  A    between atoms: _79  and  _81
REMARK   32  A    between atoms: _81  and  _82
REMARK   33  A    between atoms: _81  and  _84
REMARK   34  A    between atoms: _84  and  _85
REMARK   35  A    between atoms: _87  and  _89
REMARK   36  A    between atoms: _89  and  _90
REMARK   37  A    between atoms: _89  and  _92
REMARK   38  A    between atoms: _92  and  _93
REMARK   39  A    between atoms: _96  and  _98
REMARK   40  A    between atoms: _98  and  _99
REMARK   41  A    between atoms: _98  and  _101
REMARK   42  A    between atoms: _101  and  _102
REMARK   43  A    between atoms: _107  and  _108
REMARK   44  A    between atoms: _110  and  _112
REMARK   45  A    between atoms: _112  and  _113
REMARK   46  A    between atoms: _115  and  _117
REMARK   47  A    between atoms: _117  and  _118
REMARK   48  A    between atoms: _117  and  _120
REMARK   49  A    between atoms: _120  and  _121
REMARK   50  A    between atoms: _124  and  _126
REMARK   51  A    between atoms: _126  and  _127
REMARK   52  A    between atoms: _126  and  _129
REMARK   53  A    between atoms: _129  and  _130
REMARK   54  A    between atoms: _133  and  _135
REMARK   55  A    between atoms: _135  and  _136
REMARK   56  A    between atoms: _135  and  _138
REMARK   57  A    between atoms: _138  and  _139
REMARK   58  A    between atoms: _139  and  _140
REMARK   59  A    between atoms: _140  and  _141
REMARK   60  A    between atoms: _141  and  _142
REMARK   61  A    between atoms: _146  and  _148
REMARK   62  A    between atoms: _148  and  _149
REMARK   63  A    between atoms: _148  and  _151
REMARK   64  A    between atoms: _151  and  _152
REMARK   65  A    between atoms: _152  and  _153
REMARK   66  A    between atoms: _156  and  _158
REMARK   67  A    between atoms: _158  and  _159
REMARK   68  A    between atoms: _158  and  _161
REMARK   69  A    between atoms: _164  and  _166
REMARK   70  A    between atoms: _166  and  _167
REMARK   71  A    between atoms: _166  and  _169
REMARK   72  A    between atoms: _169  and  _170
REMARK   73  A    between atoms: _172  and  _174
REMARK   74  A    between atoms: _174  and  _175
REMARK   75  A    between atoms: _174  and  _177
REMARK   76  A    between atoms: _177  and  _178
REMARK   77  A    between atoms: _178  and  _179
REMARK   78  A    between atoms: _184  and  _186
REMARK   79  A    between atoms: _186  and  _187
REMARK   80  A    between atoms: _186  and  _189
REMARK   81  A    between atoms: _191  and  _193
REMARK   82  A    between atoms: _193  and  _194
REMARK   83  A    between atoms: _193  and  _196
REMARK   84  A    between atoms: _198  and  _200
REMARK   85  A    between atoms: _200  and  _201
REMARK   86  A    between atoms: _200  and  _203
REMARK   87  A    between atoms: _203  and  _204
REMARK   88  A    between atoms: _207  and  _209
REMARK   89  A    between atoms: _209  and  _210
REMARK   90  A    between atoms: _209  and  _212
REMARK   91  A    between atoms: _212  and  _213
REMARK   92  A    between atoms: _216  and  _218
REMARK   93  A    between atoms: _218  and  _219
REMARK   94  A    between atoms: _218  and  _221
REMARK   95  A    between atoms: _221  and  _222
REMARK   96  A    between atoms: _222  and  _223
REMARK   97  A    between atoms: _223  and  _224
REMARK   98  A    between atoms: _224  and  _225
REMARK   99  A    between atoms: _229  and  _231
REMARK  100  A    between atoms: _231  and  _232
REMARK  101  A    between atoms: _231  and  _234
REMARK  102  A    between atoms: _234  and  _235
REMARK  103  A    between atoms: _240  and  _242
REMARK  104  A    between atoms: _242  and  _243
REMARK  105  A    between atoms: _242  and  _245
REMARK  106  A    between atoms: _245  and  _246
REMARK  107  A    between atoms: _251  and  _252
REMARK  108  A    between atoms: _254  and  _256
REMARK  109  A    between atoms: _256  and  _257
REMARK  110  A    between atoms: _256  and  _259
REMARK  111  A    between atoms: _262  and  _264
REMARK  112  A    between atoms: _264  and  _265
REMARK  113  A    between atoms: _264  and  _267
REMARK  114  A    between atoms: _267  and  _268
REMARK  115  A    between atoms: _268  and  _269
REMARK  116  A    between atoms: _269  and  _270
REMARK  117  A    between atoms: _270  and  _271
REMARK  118  A    between atoms: _275  and  _277
REMARK  119  A    between atoms: _277  and  _278
REMARK  120  A    between atoms: _277  and  _280
REMARK  121  A    between atoms: _280  and  _281
REMARK  122  A    between atoms: _284  and  _286
REMARK  123  A    between atoms: _286  and  _287
REMARK  124  A    between atoms: _286  and  _289
REMARK  125  A    between atoms: _289  and  _290
REMARK  126  A    between atoms: _290  and  _291
REMARK  127  A    between atoms: _291  and  _292
REMARK  128  A    between atoms: _292  and  _293
REMARK                            x       y       z     vdW  Elec       q    Type
REMARK                         _______ _______ _______ _____ _____    ______ ____
ROOT
ATOM      1  O   HOH     1      27.797  24.817  35.961  0.00  0.00    +0.000 OA
ENDROOT
TORSDOF 0
REMARK  Name = ../refined-set-2016/4g0p/4g0p_pocket.pdb
REMARK  128 active torsions:
REMARK  status: ('A' for Active; 'I' for Inactive)
REMARK    1  A    between atoms: _1  and  _3
REMARK    2  A    between atoms: _3  and  _4
REMARK    3  A    between atoms: _3  and  _6
REMARK    4  A    between atoms: _6  and  _7
REMARK    5  A    between atoms: _10  and  _12
REMARK    6  A    between atoms: _12  and  _13
REMARK    7  A    between atoms: _12  and  _15
REMARK    8  A    between atoms: _15  and  _16
REMARK    9  A    between atoms: _19  and  _21
REMARK   10  A    between atoms: _21  and  _22
REMARK   11  A    between atoms: _21  and  _24
REMARK   12  A    between atoms: _27  and  _29
REMARK   13  A    between atoms: _29  and  _30
REMARK   14  A    between atoms: _29  and  _32
REMARK   15  A    between atoms: _32  and  _33
REMARK   16  A    between atoms: _37  and  _38
REMARK   17  A    between atoms: _43  and  _45
REMARK   18  A    between atoms: _45  and  _46
REMARK   19  A    between atoms: _45  and  _48
REMARK   20  A    between atoms: _48  and  _49
REMARK   21  A    between atoms: _52  and  _54
REMARK   22  A    between atoms: _54  and  _55
REMARK   23  A    between atoms: _54  and  _57
REMARK   24  A    between atoms: _57  and  _58
REMARK   25  A    between atoms: _63  and  _65
REMARK   26  A    between atoms: _65  and  _66
REMARK   27  A    between atoms: _65  and  _68
REMARK   28  A    between atoms: _68  and  _69
REMARK   29  A    between atoms: _74  and  _76
REMARK   30  A    between atoms: _76  and  _77
REMARK   31  A    between atoms: _79  and  _81
REMARK   32  A    between atoms: _81  and  _82
REMARK   33  A    between atoms: _81  and  _84
REMARK   34  A    between atoms: _84  and  _85
REMARK   35  A    between atoms: _87  and  _89
REMARK   36  A    between atoms: _89  and  _90
REMARK   37  A    between atoms: _89  and  _92
REMARK   38  A    between atoms: _92  and  _93
REMARK   39  A    between atoms: _96  and  _98
REMARK   40  A    between atoms: _98  and  _99
REMARK   41  A    between atoms: _98  and  _101
REMARK   42  A    between atoms: _101  and  _102
REMARK   43  A    between atoms: _107  and  _108
REMARK   44  A    between atoms: _110  and  _112
REMARK   45  A    between atoms: _112  and  _113
REMARK   46  A    between atoms: _115  and  _117
REMARK   47  A    between atoms: _117  and  _118
REMARK   48  A    between atoms: _117  and  _120
REMARK   49  A    between atoms: _120  and  _121
REMARK   50  A    between atoms: _124  and  _126
REMARK   51  A    between atoms: _126  and  _127
REMARK   52  A    between atoms: _126  and  _129
REMARK   53  A    between atoms: _129  and  _130
REMARK   54  A    between atoms: _133  and  _135
REMARK   55  A    between atoms: _135  and  _136
REMARK   56  A    between atoms: _135  and  _138
REMARK   57  A    between atoms: _138  and  _139
REMARK   58  A    between atoms: _139  and  _140
REMARK   59  A    between atoms: _140  and  _141
REMARK   60  A    between atoms: _141  and  _142
REMARK   61  A    between atoms: _146  and  _148
REMARK   62  A    between atoms: _148  and  _149
REMARK   63  A    between atoms: _148  and  _151
REMARK   64  A    between atoms: _151  and  _152
REMARK   65  A    between atoms: _152  and  _153
REMARK   66  A    between atoms: _156  and  _158
REMARK   67  A    between atoms: _158  and  _159
REMARK   68  A    between atoms: _158  and  _161
REMARK   69  A    between atoms: _164  and  _166
REMARK   70  A    between atoms: _166  and  _167
REMARK   71  A    between atoms: _166  and  _169
REMARK   72  A    between atoms: _169  and  _170
REMARK   73  A    between atoms: _172  and  _174
REMARK   74  A    between atoms: _174  and  _175
REMARK   75  A    between atoms: _174  and  _177
REMARK   76  A    between atoms: _177  and  _178
REMARK   77  A    between atoms: _178  and  _179
REMARK   78  A    between atoms: _184  and  _186
REMARK   79  A    between atoms: _186  and  _187
REMARK   80  A    between atoms: _186  and  _189
REMARK   81  A    between atoms: _191  and  _193
REMARK   82  A    between atoms: _193  and  _194
REMARK   83  A    between atoms: _193  and  _196
REMARK   84  A    between atoms: _198  and  _200
REMARK   85  A    between atoms: _200  and  _201
REMARK   86  A    between atoms: _200  and  _203
REMARK   87  A    between atoms: _203  and  _204
REMARK   88  A    between atoms: _207  and  _209
REMARK   89  A    between atoms: _209  and  _210
REMARK   90  A    between atoms: _209  and  _212
REMARK   91  A    between atoms: _212  and  _213
REMARK   92  A    between atoms: _216  and  _218
REMARK   93  A    between atoms: _218  and  _219
REMARK   94  A    between atoms: _218  and  _221
REMARK   95  A    between atoms: _221  and  _222
REMARK   96  A    between atoms: _222  and  _223
REMARK   97  A    between atoms: _223  and  _224
REMARK   98  A    between atoms: _224  and  _225
REMARK   99  A    between atoms: _229  and  _231
REMARK  100  A    between atoms: _231  and  _232
REMARK  101  A    between atoms: _231  and  _234
REMARK  102  A    between atoms: _234  and  _235
REMARK  103  A    between atoms: _240  and  _242
REMARK  104  A    between atoms: _242  and  _243
REMARK  105  A    between atoms: _242  and  _245
REMARK  106  A    between atoms: _245  and  _246
REMARK  107  A    between atoms: _251  and  _252
REMARK  108  A    between atoms: _254  and  _256
REMARK  109  A    between atoms: _256  and  _257
REMARK  110  A    between atoms: _256  and  _259
REMARK  111  A    between atoms: _262  and  _264
REMARK  112  A    between atoms: _264  and  _265
REMARK  113  A    between atoms: _264  and  _267
REMARK  114  A    between atoms: _267  and  _268
REMARK  115  A    between atoms: _268  and  _269
REMARK  116  A    between atoms: _269  and  _270
REMARK  117  A    between atoms: _270  and  _271
REMARK  118  A    between atoms: _275  and  _277
REMARK  119  A    between atoms: _277  and  _278
REMARK  120  A    between atoms: _277  and  _280
REMARK  121  A    between atoms: _280  and  _281
REMARK  122  A    between atoms: _284  and  _286
REMARK  123  A    between atoms: _286  and  _287
REMARK  124  A    between atoms: _286  and  _289
REMARK  125  A    between atoms: _289  and  _290
REMARK  126  A    between atoms: _290  and  _291
REMARK  127  A    between atoms: _291  and  _292
REMARK  128  A    between atoms: _292  and  _293
REMARK                            x       y       z     vdW  Elec       q    Type
REMARK                         _______ _______ _______ _____ _____    ______ ____
ROOT
ATOM      1  O   HOH     1      18.101  35.354  35.129  0.00  0.00    +0.000 OA
ENDROOT
TORSDOF 0
REMARK  Name = ../refined-set-2016/4g0p/4g0p_pocket.pdb
REMARK  128 active torsions:
REMARK  status: ('A' for Active; 'I' for Inactive)
REMARK    1  A    between atoms: _1  and  _3
REMARK    2  A    between atoms: _3  and  _4
REMARK    3  A    between atoms: _3  and  _6
REMARK    4  A    between atoms: _6  and  _7
REMARK    5  A    between atoms: _10  and  _12
REMARK    6  A    between atoms: _12  and  _13
REMARK    7  A    between atoms: _12  and  _15
REMARK    8  A    between atoms: _15  and  _16
REMARK    9  A    between atoms: _19  and  _21
REMARK   10  A    between atoms: _21  and  _22
REMARK   11  A    between atoms: _21  and  _24
REMARK   12  A    between atoms: _27  and  _29
REMARK   13  A    between atoms: _29  and  _30
REMARK   14  A    between atoms: _29  and  _32
REMARK   15  A    between atoms: _32  and  _33
REMARK   16  A    between atoms: _37  and  _38
REMARK   17  A    between atoms: _43  and  _45
REMARK   18  A    between atoms: _45  and  _46
REMARK   19  A    between atoms: _45  and  _48
REMARK   20  A    between atoms: _48  and  _49
REMARK   21  A    between atoms: _52  and  _54
REMARK   22  A    between atoms: _54  and  _55
REMARK   23  A    between atoms: _54  and  _57
REMARK   24  A    between atoms: _57  and  _58
REMARK   25  A    between atoms: _63  and  _65
REMARK   26  A    between atoms: _65  and  _66
REMARK   27  A    between atoms: _65  and  _68
REMARK   28  A    between atoms: _68  and  _69
REMARK   29  A    between atoms: _74  and  _76
REMARK   30  A    between atoms: _76  and  _77
REMARK   31  A    between atoms: _79  and  _81
REMARK   32  A    between atoms: _81  and  _82
REMARK   33  A    between atoms: _81  and  _84
REMARK   34  A    between atoms: _84  and  _85
REMARK   35  A    between atoms: _87  and  _89
REMARK   36  A    between atoms: _89  and  _90
REMARK   37  A    between atoms: _89  and  _92
REMARK   38  A    between atoms: _92  and  _93
REMARK   39  A    between atoms: _96  and  _98
REMARK   40  A    between atoms: _98  and  _99
REMARK   41  A    between atoms: _98  and  _101
REMARK   42  A    between atoms: _101  and  _102
REMARK   43  A    between atoms: _107  and  _108
REMARK   44  A    between atoms: _110  and  _112
REMARK   45  A    between atoms: _112  and  _113
REMARK   46  A    between atoms: _115  and  _117
REMARK   47  A    between atoms: _117  and  _118
REMARK   48  A    between atoms: _117  and  _120
REMARK   49  A    between atoms: _120  and  _121
REMARK   50  A    between atoms: _124  and  _126
REMARK   51  A    between atoms: _126  and  _127
REMARK   52  A    between atoms: _126  and  _129
REMARK   53  A    between atoms: _129  and  _130
REMARK   54  A    between atoms: _133  and  _135
REMARK   55  A    between atoms: _135  and  _136
REMARK   56  A    between atoms: _135  and  _138
REMARK   57  A    between atoms: _138  and  _139
REMARK   58  A    between atoms: _139  and  _140
REMARK   59  A    between atoms: _140  and  _141
REMARK   60  A    between atoms: _141  and  _142
REMARK   61  A    between atoms: _146  and  _148
REMARK   62  A    between atoms: _148  and  _149
REMARK   63  A    between atoms: _148  and  _151
REMARK   64  A    between atoms: _151  and  _152
REMARK   65  A    between atoms: _152  and  _153
REMARK   66  A    between atoms: _156  and  _158
REMARK   67  A    between atoms: _158  and  _159
REMARK   68  A    between atoms: _158  and  _161
REMARK   69  A    between atoms: _164  and  _166
REMARK   70  A    between atoms: _166  and  _167
REMARK   71  A    between atoms: _166  and  _169
REMARK   72  A    between atoms: _169  and  _170
REMARK   73  A    between atoms: _172  and  _174
REMARK   74  A    between atoms: _174  and  _175
REMARK   75  A    between atoms: _174  and  _177
REMARK   76  A    between atoms: _177  and  _178
REMARK   77  A    between atoms: _178  and  _179
REMARK   78  A    between atoms: _184  and  _186
REMARK   79  A    between atoms: _186  and  _187
REMARK   80  A    between atoms: _186  and  _189
REMARK   81  A    between atoms: _191  and  _193
REMARK   82  A    between atoms: _193  and  _194
REMARK   83  A    between atoms: _193  and  _196
REMARK   84  A    between atoms: _198  and  _200
REMARK   85  A    between atoms: _200  and  _201
REMARK   86  A    between atoms: _200  and  _203
REMARK   87  A    between atoms: _203  and  _204
REMARK   88  A    between atoms: _207  and  _209
REMARK   89  A    between atoms: _209  and  _210
REMARK   90  A    between atoms: _209  and  _212
REMARK   91  A    between atoms: _212  and  _213
REMARK   92  A    between atoms: _216  and  _218
REMARK   93  A    between atoms: _218  and  _219
REMARK   94  A    between atoms: _218  and  _221
REMARK   95  A    between atoms: _221  and  _222
REMARK   96  A    between atoms: _222  and  _223
REMARK   97  A    between atoms: _223  and  _224
REMARK   98  A    between atoms: _224  and  _225
REMARK   99  A    between atoms: _229  and  _231
REMARK  100  A    between atoms: _231  and  _232
REMARK  101  A    between atoms: _231  and  _234
REMARK  102  A    between atoms: _234  and  _235
REMARK  103  A    between atoms: _240  and  _242
REMARK  104  A    between atoms: _242  and  _243
REMARK  105  A    between atoms: _242  and  _245
REMARK  106  A    between atoms: _245  and  _246
REMARK  107  A    between atoms: _251  and  _252
REMARK  108  A    between atoms: _254  and  _256
REMARK  109  A    between atoms: _256  and  _257
REMARK  110  A    between atoms: _256  and  _259
REMARK  111  A    between atoms: _262  and  _264
REMARK  112  A    between atoms: _264  and  _265
REMARK  113  A    between atoms: _264  and  _267
REMARK  114  A    between atoms: _267  and  _268
REMARK  115  A    between atoms: _268  and  _269
REMARK  116  A    between atoms: _269  and  _270
REMARK  117  A    between atoms: _270  and  _271
REMARK  118  A    between atoms: _275  and  _277
REMARK  119  A    between atoms: _277  and  _278
REMARK  120  A    between atoms: _277  and  _280
REMARK  121  A    between atoms: _280  and  _281
REMARK  122  A    between atoms: _284  and  _286
REMARK  123  A    between atoms: _286  and  _287
REMARK  124  A    between atoms: _286  and  _289
REMARK  125  A    between atoms: _289  and  _290
REMARK  126  A    between atoms: _290  and  _291
REMARK  127  A    between atoms: _291  and  _292
REMARK  128  A    between atoms: _292  and  _293
REMARK                            x       y       z     vdW  Elec       q    Type
REMARK                         _______ _______ _______ _____ _____    ______ ____
ROOT
ATOM      1  O   HOH     1      29.486  23.216  37.795  0.00  0.00    +0.000 OA
ENDROOT
TORSDOF 0
REMARK  Name = ../refined-set-2016/4g0p/4g0p_pocket.pdb
REMARK  128 active torsions:
REMARK  status: ('A' for Active; 'I' for Inactive)
REMARK    1  A    between atoms: _1  and  _3
REMARK    2  A    between atoms: _3  and  _4
REMARK    3  A    between atoms: _3  and  _6
REMARK    4  A    between atoms: _6  and  _7
REMARK    5  A    between atoms: _10  and  _12
REMARK    6  A    between atoms: _12  and  _13
REMARK    7  A    between atoms: _12  and  _15
REMARK    8  A    between atoms: _15  and  _16
REMARK    9  A    between atoms: _19  and  _21
REMARK   10  A    between atoms: _21  and  _22
REMARK   11  A    between atoms: _21  and  _24
REMARK   12  A    between atoms: _27  and  _29
REMARK   13  A    between atoms: _29  and  _30
REMARK   14  A    between atoms: _29  and  _32
REMARK   15  A    between atoms: _32  and  _33
REMARK   16  A    between atoms: _37  and  _38
REMARK   17  A    between atoms: _43  and  _45
REMARK   18  A    between atoms: _45  and  _46
REMARK   19  A    between atoms: _45  and  _48
REMARK   20  A    between atoms: _48  and  _49
REMARK   21  A    between atoms: _52  and  _54
REMARK   22  A    between atoms: _54  and  _55
REMARK   23  A    between atoms: _54  and  _57
REMARK   24  A    between atoms: _57  and  _58
REMARK   25  A    between atoms: _63  and  _65
REMARK   26  A    between atoms: _65  and  _66
REMARK   27  A    between atoms: _65  and  _68
REMARK   28  A    between atoms: _68  and  _69
REMARK   29  A    between atoms: _74  and  _76
REMARK   30  A    between atoms: _76  and  _77
REMARK   31  A    between atoms: _79  and  _81
REMARK   32  A    between atoms: _81  and  _82
REMARK   33  A    between atoms: _81  and  _84
REMARK   34  A    between atoms: _84  and  _85
REMARK   35  A    between atoms: _87  and  _89
REMARK   36  A    between atoms: _89  and  _90
REMARK   37  A    between atoms: _89  and  _92
REMARK   38  A    between atoms: _92  and  _93
REMARK   39  A    between atoms: _96  and  _98
REMARK   40  A    between atoms: _98  and  _99
REMARK   41  A    between atoms: _98  and  _101
REMARK   42  A    between atoms: _101  and  _102
REMARK   43  A    between atoms: _107  and  _108
REMARK   44  A    between atoms: _110  and  _112
REMARK   45  A    between atoms: _112  and  _113
REMARK   46  A    between atoms: _115  and  _117
REMARK   47  A    between atoms: _117  and  _118
REMARK   48  A    between atoms: _117  and  _120
REMARK   49  A    between atoms: _120  and  _121
REMARK   50  A    between atoms: _124  and  _126
REMARK   51  A    between atoms: _126  and  _127
REMARK   52  A    between atoms: _126  and  _129
REMARK   53  A    between atoms: _129  and  _130
REMARK   54  A    between atoms: _133  and  _135
REMARK   55  A    between atoms: _135  and  _136
REMARK   56  A    between atoms: _135  and  _138
REMARK   57  A    between atoms: _138  and  _139
REMARK   58  A    between atoms: _139  and  _140
REMARK   59  A    between atoms: _140  and  _141
REMARK   60  A    between atoms: _141  and  _142
REMARK   61  A    between atoms: _146  and  _148
REMARK   62  A    between atoms: _148  and  _149
REMARK   63  A    between atoms: _148  and  _151
REMARK   64  A    between atoms: _151  and  _152
REMARK   65  A    between atoms: _152  and  _153
REMARK   66  A    between atoms: _156  and  _158
REMARK   67  A    between atoms: _158  and  _159
REMARK   68  A    between atoms: _158  and  _161
REMARK   69  A    between atoms: _164  and  _166
REMARK   70  A    between atoms: _166  and  _167
REMARK   71  A    between atoms: _166  and  _169
REMARK   72  A    between atoms: _169  and  _170
REMARK   73  A    between atoms: _172  and  _174
REMARK   74  A    between atoms: _174  and  _175
REMARK   75  A    between atoms: _174  and  _177
REMARK   76  A    between atoms: _177  and  _178
REMARK   77  A    between atoms: _178  and  _179
REMARK   78  A    between atoms: _184  and  _186
REMARK   79  A    between atoms: _186  and  _187
REMARK   80  A    between atoms: _186  and  _189
REMARK   81  A    between atoms: _191  and  _193
REMARK   82  A    between atoms: _193  and  _194
REMARK   83  A    between atoms: _193  and  _196
REMARK   84  A    between atoms: _198  and  _200
REMARK   85  A    between atoms: _200  and  _201
REMARK   86  A    between atoms: _200  and  _203
REMARK   87  A    between atoms: _203  and  _204
REMARK   88  A    between atoms: _207  and  _209
REMARK   89  A    between atoms: _209  and  _210
REMARK   90  A    between atoms: _209  and  _212
REMARK   91  A    between atoms: _212  and  _213
REMARK   92  A    between atoms: _216  and  _218
REMARK   93  A    between atoms: _218  and  _219
REMARK   94  A    between atoms: _218  and  _221
REMARK   95  A    between atoms: _221  and  _222
REMARK   96  A    between atoms: _222  and  _223
REMARK   97  A    between atoms: _223  and  _224
REMARK   98  A    between atoms: _224  and  _225
REMARK   99  A    between atoms: _229  and  _231
REMARK  100  A    between atoms: _231  and  _232
REMARK  101  A    between atoms: _231  and  _234
REMARK  102  A    between atoms: _234  and  _235
REMARK  103  A    between atoms: _240  and  _242
REMARK  104  A    between atoms: _242  and  _243
REMARK  105  A    between atoms: _242  and  _245
REMARK  106  A    between atoms: _245  and  _246
REMARK  107  A    between atoms: _251  and  _252
REMARK  108  A    between atoms: _254  and  _256
REMARK  109  A    between atoms: _256  and  _257
REMARK  110  A    between atoms: _256  and  _259
REMARK  111  A    between atoms: _262  and  _264
REMARK  112  A    between atoms: _264  and  _265
REMARK  113  A    between atoms: _264  and  _267
REMARK  114  A    between atoms: _267  and  _268
REMARK  115  A    between atoms: _268  and  _269
REMARK  116  A    between atoms: _269  and  _270
REMARK  117  A    between atoms: _270  and  _271
REMARK  118  A    between atoms: _275  and  _277
REMARK  119  A    between atoms: _277  and  _278
REMARK  120  A    between atoms: _277  and  _280
REMARK  121  A    between atoms: _280  and  _281
REMARK  122  A    between atoms: _284  and  _286
REMARK  123  A    between atoms: _286  and  _287
REMARK  124  A    between atoms: _286  and  _289
REMARK  125  A    between atoms: _289  and  _290
REMARK  126  A    between atoms: _290  and  _291
REMARK  127  A    between atoms: _291  and  _292
REMARK  128  A    between atoms: _292  and  _293
REMARK                            x       y       z     vdW  Elec       q    Type
REMARK                         _______ _______ _______ _____ _____    ______ ____
ROOT
ATOM      1  O   HOH     1      25.977  41.635  37.632  0.00  0.00    +0.000 OA
ENDROOT
TORSDOF 0
REMARK  Name = ../refined-set-2016/4g0p/4g0p_pocket.pdb
REMARK  128 active torsions:
REMARK  status: ('A' for Active; 'I' for Inactive)
REMARK    1  A    between atoms: _1  and  _3
REMARK    2  A    between atoms: _3  and  _4
REMARK    3  A    between atoms: _3  and  _6
REMARK    4  A    between atoms: _6  and  _7
REMARK    5  A    between atoms: _10  and  _12
REMARK    6  A    between atoms: _12  and  _13
REMARK    7  A    between atoms: _12  and  _15
REMARK    8  A    between atoms: _15  and  _16
REMARK    9  A    between atoms: _19  and  _21
REMARK   10  A    between atoms: _21  and  _22
REMARK   11  A    between atoms: _21  and  _24
REMARK   12  A    between atoms: _27  and  _29
REMARK   13  A    between atoms: _29  and  _30
REMARK   14  A    between atoms: _29  and  _32
REMARK   15  A    between atoms: _32  and  _33
REMARK   16  A    between atoms: _37  and  _38
REMARK   17  A    between atoms: _43  and  _45
REMARK   18  A    between atoms: _45  and  _46
REMARK   19  A    between atoms: _45  and  _48
REMARK   20  A    between atoms: _48  and  _49
REMARK   21  A    between atoms: _52  and  _54
REMARK   22  A    between atoms: _54  and  _55
REMARK   23  A    between atoms: _54  and  _57
REMARK   24  A    between atoms: _57  and  _58
REMARK   25  A    between atoms: _63  and  _65
REMARK   26  A    between atoms: _65  and  _66
REMARK   27  A    between atoms: _65  and  _68
REMARK   28  A    between atoms: _68  and  _69
REMARK   29  A    between atoms: _74  and  _76
REMARK   30  A    between atoms: _76  and  _77
REMARK   31  A    between atoms: _79  and  _81
REMARK   32  A    between atoms: _81  and  _82
REMARK   33  A    between atoms: _81  and  _84
REMARK   34  A    between atoms: _84  and  _85
REMARK   35  A    between atoms: _87  and  _89
REMARK   36  A    between atoms: _89  and  _90
REMARK   37  A    between atoms: _89  and  _92
REMARK   38  A    between atoms: _92  and  _93
REMARK   39  A    between atoms: _96  and  _98
REMARK   40  A    between atoms: _98  and  _99
REMARK   41  A    between atoms: _98  and  _101
REMARK   42  A    between atoms: _101  and  _102
REMARK   43  A    between atoms: _107  and  _108
REMARK   44  A    between atoms: _110  and  _112
REMARK   45  A    between atoms: _112  and  _113
REMARK   46  A    between atoms: _115  and  _117
REMARK   47  A    between atoms: _117  and  _118
REMARK   48  A    between atoms: _117  and  _120
REMARK   49  A    between atoms: _120  and  _121
REMARK   50  A    between atoms: _124  and  _126
REMARK   51  A    between atoms: _126  and  _127
REMARK   52  A    between atoms: _126  and  _129
REMARK   53  A    between atoms: _129  and  _130
REMARK   54  A    between atoms: _133  and  _135
REMARK   55  A    between atoms: _135  and  _136
REMARK   56  A    between atoms: _135  and  _138
REMARK   57  A    between atoms: _138  and  _139
REMARK   58  A    between atoms: _139  and  _140
REMARK   59  A    between atoms: _140  and  _141
REMARK   60  A    between atoms: _141  and  _142
REMARK   61  A    between atoms: _146  and  _148
REMARK   62  A    between atoms: _148  and  _149
REMARK   63  A    between atoms: _148  and  _151
REMARK   64  A    between atoms: _151  and  _152
REMARK   65  A    between atoms: _152  and  _153
REMARK   66  A    between atoms: _156  and  _158
REMARK   67  A    between atoms: _158  and  _159
REMARK   68  A    between atoms: _158  and  _161
REMARK   69  A    between atoms: _164  and  _166
REMARK   70  A    between atoms: _166  and  _167
REMARK   71  A    between atoms: _166  and  _169
REMARK   72  A    between atoms: _169  and  _170
REMARK   73  A    between atoms: _172  and  _174
REMARK   74  A    between atoms: _174  and  _175
REMARK   75  A    between atoms: _174  and  _177
REMARK   76  A    between atoms: _177  and  _178
REMARK   77  A    between atoms: _178  and  _179
REMARK   78  A    between atoms: _184  and  _186
REMARK   79  A    between atoms: _186  and  _187
REMARK   80  A    between atoms: _186  and  _189
REMARK   81  A    between atoms: _191  and  _193
REMARK   82  A    between atoms: _193  and  _194
REMARK   83  A    between atoms: _193  and  _196
REMARK   84  A    between atoms: _198  and  _200
REMARK   85  A    between atoms: _200  and  _201
REMARK   86  A    between atoms: _200  and  _203
REMARK   87  A    between atoms: _203  and  _204
REMARK   88  A    between atoms: _207  and  _209
REMARK   89  A    between atoms: _209  and  _210
REMARK   90  A    between atoms: _209  and  _212
REMARK   91  A    between atoms: _212  and  _213
REMARK   92  A    between atoms: _216  and  _218
REMARK   93  A    between atoms: _218  and  _219
REMARK   94  A    between atoms: _218  and  _221
REMARK   95  A    between atoms: _221  and  _222
REMARK   96  A    between atoms: _222  and  _223
REMARK   97  A    between atoms: _223  and  _224
REMARK   98  A    between atoms: _224  and  _225
REMARK   99  A    between atoms: _229  and  _231
REMARK  100  A    between atoms: _231  and  _232
REMARK  101  A    between atoms: _231  and  _234
REMARK  102  A    between atoms: _234  and  _235
REMARK  103  A    between atoms: _240  and  _242
REMARK  104  A    between atoms: _242  and  _243
REMARK  105  A    between atoms: _242  and  _245
REMARK  106  A    between atoms: _245  and  _246
REMARK  107  A    between atoms: _251  and  _252
REMARK  108  A    between atoms: _254  and  _256
REMARK  109  A    between atoms: _256  and  _257
REMARK  110  A    between atoms: _256  and  _259
REMARK  111  A    between atoms: _262  and  _264
REMARK  112  A    between atoms: _264  and  _265
REMARK  113  A    between atoms: _264  and  _267
REMARK  114  A    between atoms: _267  and  _268
REMARK  115  A    between atoms: _268  and  _269
REMARK  116  A    between atoms: _269  and  _270
REMARK  117  A    between atoms: _270  and  _271
REMARK  118  A    between atoms: _275  and  _277
REMARK  119  A    between atoms: _277  and  _278
REMARK  120  A    between atoms: _277  and  _280
REMARK  121  A    between atoms: _280  and  _281
REMARK  122  A    between atoms: _284  and  _286
REMARK  123  A    between atoms: _286  and  _287
REMARK  124  A    between atoms: _286  and  _289
REMARK  125  A    between atoms: _289  and  _290
REMARK  126  A    between atoms: _290  and  _291
REMARK  127  A    between atoms: _291  and  _292
REMARK  128  A    between atoms: _292  and  _293
REMARK                            x       y       z     vdW  Elec       q    Type
REMARK                         _______ _______ _______ _____ _____    ______ ____
ROOT
ATOM      1  O   HOH     1      22.904  39.538  34.085  0.00  0.00    +0.000 OA
ENDROOT
TORSDOF 0
REMARK  Name = ../refined-set-2016/4g0p/4g0p_pocket.pdb
REMARK  128 active torsions:
REMARK  status: ('A' for Active; 'I' for Inactive)
REMARK    1  A    between atoms: _1  and  _3
REMARK    2  A    between atoms: _3  and  _4
REMARK    3  A    between atoms: _3  and  _6
REMARK    4  A    between atoms: _6  and  _7
REMARK    5  A    between atoms: _10  and  _12
REMARK    6  A    between atoms: _12  and  _13
REMARK    7  A    between atoms: _12  and  _15
REMARK    8  A    between atoms: _15  and  _16
REMARK    9  A    between atoms: _19  and  _21
REMARK   10  A    between atoms: _21  and  _22
REMARK   11  A    between atoms: _21  and  _24
REMARK   12  A    between atoms: _27  and  _29
REMARK   13  A    between atoms: _29  and  _30
REMARK   14  A    between atoms: _29  and  _32
REMARK   15  A    between atoms: _32  and  _33
REMARK   16  A    between atoms: _37  and  _38
REMARK   17  A    between atoms: _43  and  _45
REMARK   18  A    between atoms: _45  and  _46
REMARK   19  A    between atoms: _45  and  _48
REMARK   20  A    between atoms: _48  and  _49
REMARK   21  A    between atoms: _52  and  _54
REMARK   22  A    between atoms: _54  and  _55
REMARK   23  A    between atoms: _54  and  _57
REMARK   24  A    between atoms: _57  and  _58
REMARK   25  A    between atoms: _63  and  _65
REMARK   26  A    between atoms: _65  and  _66
REMARK   27  A    between atoms: _65  and  _68
REMARK   28  A    between atoms: _68  and  _69
REMARK   29  A    between atoms: _74  and  _76
REMARK   30  A    between atoms: _76  and  _77
REMARK   31  A    between atoms: _79  and  _81
REMARK   32  A    between atoms: _81  and  _82
REMARK   33  A    between atoms: _81  and  _84
REMARK   34  A    between atoms: _84  and  _85
REMARK   35  A    between atoms: _87  and  _89
REMARK   36  A    between atoms: _89  and  _90
REMARK   37  A    between atoms: _89  and  _92
REMARK   38  A    between atoms: _92  and  _93
REMARK   39  A    between atoms: _96  and  _98
REMARK   40  A    between atoms: _98  and  _99
REMARK   41  A    between atoms: _98  and  _101
REMARK   42  A    between atoms: _101  and  _102
REMARK   43  A    between atoms: _107  and  _108
REMARK   44  A    between atoms: _110  and  _112
REMARK   45  A    between atoms: _112  and  _113
REMARK   46  A    between atoms: _115  and  _117
REMARK   47  A    between atoms: _117  and  _118
REMARK   48  A    between atoms: _117  and  _120
REMARK   49  A    between atoms: _120  and  _121
REMARK   50  A    between atoms: _124  and  _126
REMARK   51  A    between atoms: _126  and  _127
REMARK   52  A    between atoms: _126  and  _129
REMARK   53  A    between atoms: _129  and  _130
REMARK   54  A    between atoms: _133  and  _135
REMARK   55  A    between atoms: _135  and  _136
REMARK   56  A    between atoms: _135  and  _138
REMARK   57  A    between atoms: _138  and  _139
REMARK   58  A    between atoms: _139  and  _140
REMARK   59  A    between atoms: _140  and  _141
REMARK   60  A    between atoms: _141  and  _142
REMARK   61  A    between atoms: _146  and  _148
REMARK   62  A    between atoms: _148  and  _149
REMARK   63  A    between atoms: _148  and  _151
REMARK   64  A    between atoms: _151  and  _152
REMARK   65  A    between atoms: _152  and  _153
REMARK   66  A    between atoms: _156  and  _158
REMARK   67  A    between atoms: _158  and  _159
REMARK   68  A    between atoms: _158  and  _161
REMARK   69  A    between atoms: _164  and  _166
REMARK   70  A    between atoms: _166  and  _167
REMARK   71  A    between atoms: _166  and  _169
REMARK   72  A    between atoms: _169  and  _170
REMARK   73  A    between atoms: _172  and  _174
REMARK   74  A    between atoms: _174  and  _175
REMARK   75  A    between atoms: _174  and  _177
REMARK   76  A    between atoms: _177  and  _178
REMARK   77  A    between atoms: _178  and  _179
REMARK   78  A    between atoms: _184  and  _186
REMARK   79  A    between atoms: _186  and  _187
REMARK   80  A    between atoms: _186  and  _189
REMARK   81  A    between atoms: _191  and  _193
REMARK   82  A    between atoms: _193  and  _194
REMARK   83  A    between atoms: _193  and  _196
REMARK   84  A    between atoms: _198  and  _200
REMARK   85  A    between atoms: _200  and  _201
REMARK   86  A    between atoms: _200  and  _203
REMARK   87  A    between atoms: _203  and  _204
REMARK   88  A    between atoms: _207  and  _209
REMARK   89  A    between atoms: _209  and  _210
REMARK   90  A    between atoms: _209  and  _212
REMARK   91  A    between atoms: _212  and  _213
REMARK   92  A    between atoms: _216  and  _218
REMARK   93  A    between atoms: _218  and  _219
REMARK   94  A    between atoms: _218  and  _221
REMARK   95  A    between atoms: _221  and  _222
REMARK   96  A    between atoms: _222  and  _223
REMARK   97  A    between atoms: _223  and  _224
REMARK   98  A    between atoms: _224  and  _225
REMARK   99  A    between atoms: _229  and  _231
REMARK  100  A    between atoms: _231  and  _232
REMARK  101  A    between atoms: _231  and  _234
REMARK  102  A    between atoms: _234  and  _235
REMARK  103  A    between atoms: _240  and  _242
REMARK  104  A    between atoms: _242  and  _243
REMARK  105  A    between atoms: _242  and  _245
REMARK  106  A    between atoms: _245  and  _246
REMARK  107  A    between atoms: _251  and  _252
REMARK  108  A    between atoms: _254  and  _256
REMARK  109  A    between atoms: _256  and  _257
REMARK  110  A    between atoms: _256  and  _259
REMARK  111  A    between atoms: _262  and  _264
REMARK  112  A    between atoms: _264  and  _265
REMARK  113  A    between atoms: _264  and  _267
REMARK  114  A    between atoms: _267  and  _268
REMARK  115  A    between atoms: _268  and  _269
REMARK  116  A    between atoms: _269  and  _270
REMARK  117  A    between atoms: _270  and  _271
REMARK  118  A    between atoms: _275  and  _277
REMARK  119  A    between atoms: _277  and  _278
REMARK  120  A    between atoms: _277  and  _280
REMARK  121  A    between atoms: _280  and  _281
REMARK  122  A    between atoms: _284  and  _286
REMARK  123  A    between atoms: _286  and  _287
REMARK  124  A    between atoms: _286  and  _289
REMARK  125  A    between atoms: _289  and  _290
REMARK  126  A    between atoms: _290  and  _291
REMARK  127  A    between atoms: _291  and  _292
REMARK  128  A    between atoms: _292  and  _293
REMARK                            x       y       z     vdW  Elec       q    Type
REMARK                         _______ _______ _______ _____ _____    ______ ____
ROOT
ATOM      1  O   HOH     1      29.901  20.572  36.734  0.00  0.00    +0.000 OA
ENDROOT
TORSDOF 0
REMARK  Name = ../refined-set-2016/4g0p/4g0p_pocket.pdb
REMARK  128 active torsions:
REMARK  status: ('A' for Active; 'I' for Inactive)
REMARK    1  A    between atoms: _1  and  _3
REMARK    2  A    between atoms: _3  and  _4
REMARK    3  A    between atoms: _3  and  _6
REMARK    4  A    between atoms: _6  and  _7
REMARK    5  A    between atoms: _10  and  _12
REMARK    6  A    between atoms: _12  and  _13
REMARK    7  A    between atoms: _12  and  _15
REMARK    8  A    between atoms: _15  and  _16
REMARK    9  A    between atoms: _19  and  _21
REMARK   10  A    between atoms: _21  and  _22
REMARK   11  A    between atoms: _21  and  _24
REMARK   12  A    between atoms: _27  and  _29
REMARK   13  A    between atoms: _29  and  _30
REMARK   14  A    between atoms: _29  and  _32
REMARK   15  A    between atoms: _32  and  _33
REMARK   16  A    between atoms: _37  and  _38
REMARK   17  A    between atoms: _43  and  _45
REMARK   18  A    between atoms: _45  and  _46
REMARK   19  A    between atoms: _45  and  _48
REMARK   20  A    between atoms: _48  and  _49
REMARK   21  A    between atoms: _52  and  _54
REMARK   22  A    between atoms: _54  and  _55
REMARK   23  A    between atoms: _54  and  _57
REMARK   24  A    between atoms: _57  and  _58
REMARK   25  A    between atoms: _63  and  _65
REMARK   26  A    between atoms: _65  and  _66
REMARK   27  A    between atoms: _65  and  _68
REMARK   28  A    between atoms: _68  and  _69
REMARK   29  A    between atoms: _74  and  _76
REMARK   30  A    between atoms: _76  and  _77
REMARK   31  A    between atoms: _79  and  _81
REMARK   32  A    between atoms: _81  and  _82
REMARK   33  A    between atoms: _81  and  _84
REMARK   34  A    between atoms: _84  and  _85
REMARK   35  A    between atoms: _87  and  _89
REMARK   36  A    between atoms: _89  and  _90
REMARK   37  A    between atoms: _89  and  _92
REMARK   38  A    between atoms: _92  and  _93
REMARK   39  A    between atoms: _96  and  _98
REMARK   40  A    between atoms: _98  and  _99
REMARK   41  A    between atoms: _98  and  _101
REMARK   42  A    between atoms: _101  and  _102
REMARK   43  A    between atoms: _107  and  _108
REMARK   44  A    between atoms: _110  and  _112
REMARK   45  A    between atoms: _112  and  _113
REMARK   46  A    between atoms: _115  and  _117
REMARK   47  A    between atoms: _117  and  _118
REMARK   48  A    between atoms: _117  and  _120
REMARK   49  A    between atoms: _120  and  _121
REMARK   50  A    between atoms: _124  and  _126
REMARK   51  A    between atoms: _126  and  _127
REMARK   52  A    between atoms: _126  and  _129
REMARK   53  A    between atoms: _129  and  _130
REMARK   54  A    between atoms: _133  and  _135
REMARK   55  A    between atoms: _135  and  _136
REMARK   56  A    between atoms: _135  and  _138
REMARK   57  A    between atoms: _138  and  _139
REMARK   58  A    between atoms: _139  and  _140
REMARK   59  A    between atoms: _140  and  _141
REMARK   60  A    between atoms: _141  and  _142
REMARK   61  A    between atoms: _146  and  _148
REMARK   62  A    between atoms: _148  and  _149
REMARK   63  A    between atoms: _148  and  _151
REMARK   64  A    between atoms: _151  and  _152
REMARK   65  A    between atoms: _152  and  _153
REMARK   66  A    between atoms: _156  and  _158
REMARK   67  A    between atoms: _158  and  _159
REMARK   68  A    between atoms: _158  and  _161
REMARK   69  A    between atoms: _164  and  _166
REMARK   70  A    between atoms: _166  and  _167
REMARK   71  A    between atoms: _166  and  _169
REMARK   72  A    between atoms: _169  and  _170
REMARK   73  A    between atoms: _172  and  _174
REMARK   74  A    between atoms: _174  and  _175
REMARK   75  A    between atoms: _174  and  _177
REMARK   76  A    between atoms: _177  and  _178
REMARK   77  A    between atoms: _178  and  _179
REMARK   78  A    between atoms: _184  and  _186
REMARK   79  A    between atoms: _186  and  _187
REMARK   80  A    between atoms: _186  and  _189
REMARK   81  A    between atoms: _191  and  _193
REMARK   82  A    between atoms: _193  and  _194
REMARK   83  A    between atoms: _193  and  _196
REMARK   84  A    between atoms: _198  and  _200
REMARK   85  A    between atoms: _200  and  _201
REMARK   86  A    between atoms: _200  and  _203
REMARK   87  A    between atoms: _203  and  _204
REMARK   88  A    between atoms: _207  and  _209
REMARK   89  A    between atoms: _209  and  _210
REMARK   90  A    between atoms: _209  and  _212
REMARK   91  A    between atoms: _212  and  _213
REMARK   92  A    between atoms: _216  and  _218
REMARK   93  A    between atoms: _218  and  _219
REMARK   94  A    between atoms: _218  and  _221
REMARK   95  A    between atoms: _221  and  _222
REMARK   96  A    between atoms: _222  and  _223
REMARK   97  A    between atoms: _223  and  _224
REMARK   98  A    between atoms: _224  and  _225
REMARK   99  A    between atoms: _229  and  _231
REMARK  100  A    between atoms: _231  and  _232
REMARK  101  A    between atoms: _231  and  _234
REMARK  102  A    between atoms: _234  and  _235
REMARK  103  A    between atoms: _240  and  _242
REMARK  104  A    between atoms: _242  and  _243
REMARK  105  A    between atoms: _242  and  _245
REMARK  106  A    between atoms: _245  and  _246
REMARK  107  A    between atoms: _251  and  _252
REMARK  108  A    between atoms: _254  and  _256
REMARK  109  A    between atoms: _256  and  _257
REMARK  110  A    between atoms: _256  and  _259
REMARK  111  A    between atoms: _262  and  _264
REMARK  112  A    between atoms: _264  and  _265
REMARK  113  A    between atoms: _264  and  _267
REMARK  114  A    between atoms: _267  and  _268
REMARK  115  A    between atoms: _268  and  _269
REMARK  116  A    between atoms: _269  and  _270
REMARK  117  A    between atoms: _270  and  _271
REMARK  118  A    between atoms: _275  and  _277
REMARK  119  A    between atoms: _277  and  _278
REMARK  120  A    between atoms: _277  and  _280
REMARK  121  A    between atoms: _280  and  _281
REMARK  122  A    between atoms: _284  and  _286
REMARK  123  A    between atoms: _286  and  _287
REMARK  124  A    between atoms: _286  and  _289
REMARK  125  A    between atoms: _289  and  _290
REMARK  126  A    between atoms: _290  and  _291
REMARK  127  A    between atoms: _291  and  _292
REMARK  128  A    between atoms: _292  and  _293
REMARK                            x       y       z     vdW  Elec       q    Type
REMARK                         _______ _______ _______ _____ _____    ______ ____
ROOT
ATOM      1  O   HOH     1      29.475  35.504  41.995  0.00  0.00    +0.000 OA
ENDROOT
TORSDOF 0
REMARK  Name = ../refined-set-2016/4g0p/4g0p_pocket.pdb
REMARK  128 active torsions:
REMARK  status: ('A' for Active; 'I' for Inactive)
REMARK    1  A    between atoms: _1  and  _3
REMARK    2  A    between atoms: _3  and  _4
REMARK    3  A    between atoms: _3  and  _6
REMARK    4  A    between atoms: _6  and  _7
REMARK    5  A    between atoms: _10  and  _12
REMARK    6  A    between atoms: _12  and  _13
REMARK    7  A    between atoms: _12  and  _15
REMARK    8  A    between atoms: _15  and  _16
REMARK    9  A    between atoms: _19  and  _21
REMARK   10  A    between atoms: _21  and  _22
REMARK   11  A    between atoms: _21  and  _24
REMARK   12  A    between atoms: _27  and  _29
REMARK   13  A    between atoms: _29  and  _30
REMARK   14  A    between atoms: _29  and  _32
REMARK   15  A    between atoms: _32  and  _33
REMARK   16  A    between atoms: _37  and  _38
REMARK   17  A    between atoms: _43  and  _45
REMARK   18  A    between atoms: _45  and  _46
REMARK   19  A    between atoms: _45  and  _48
REMARK   20  A    between atoms: _48  and  _49
REMARK   21  A    between atoms: _52  and  _54
REMARK   22  A    between atoms: _54  and  _55
REMARK   23  A    between atoms: _54  and  _57
REMARK   24  A    between atoms: _57  and  _58
REMARK   25  A    between atoms: _63  and  _65
REMARK   26  A    between atoms: _65  and  _66
REMARK   27  A    between atoms: _65  and  _68
REMARK   28  A    between atoms: _68  and  _69
REMARK   29  A    between atoms: _74  and  _76
REMARK   30  A    between atoms: _76  and  _77
REMARK   31  A    between atoms: _79  and  _81
REMARK   32  A    between atoms: _81  and  _82
REMARK   33  A    between atoms: _81  and  _84
REMARK   34  A    between atoms: _84  and  _85
REMARK   35  A    between atoms: _87  and  _89
REMARK   36  A    between atoms: _89  and  _90
REMARK   37  A    between atoms: _89  and  _92
REMARK   38  A    between atoms: _92  and  _93
REMARK   39  A    between atoms: _96  and  _98
REMARK   40  A    between atoms: _98  and  _99
REMARK   41  A    between atoms: _98  and  _101
REMARK   42  A    between atoms: _101  and  _102
REMARK   43  A    between atoms: _107  and  _108
REMARK   44  A    between atoms: _110  and  _112
REMARK   45  A    between atoms: _112  and  _113
REMARK   46  A    between atoms: _115  and  _117
REMARK   47  A    between atoms: _117  and  _118
REMARK   48  A    between atoms: _117  and  _120
REMARK   49  A    between atoms: _120  and  _121
REMARK   50  A    between atoms: _124  and  _126
REMARK   51  A    between atoms: _126  and  _127
REMARK   52  A    between atoms: _126  and  _129
REMARK   53  A    between atoms: _129  and  _130
REMARK   54  A    between atoms: _133  and  _135
REMARK   55  A    between atoms: _135  and  _136
REMARK   56  A    between atoms: _135  and  _138
REMARK   57  A    between atoms: _138  and  _139
REMARK   58  A    between atoms: _139  and  _140
REMARK   59  A    between atoms: _140  and  _141
REMARK   60  A    between atoms: _141  and  _142
REMARK   61  A    between atoms: _146  and  _148
REMARK   62  A    between atoms: _148  and  _149
REMARK   63  A    between atoms: _148  and  _151
REMARK   64  A    between atoms: _151  and  _152
REMARK   65  A    between atoms: _152  and  _153
REMARK   66  A    between atoms: _156  and  _158
REMARK   67  A    between atoms: _158  and  _159
REMARK   68  A    between atoms: _158  and  _161
REMARK   69  A    between atoms: _164  and  _166
REMARK   70  A    between atoms: _166  and  _167
REMARK   71  A    between atoms: _166  and  _169
REMARK   72  A    between atoms: _169  and  _170
REMARK   73  A    between atoms: _172  and  _174
REMARK   74  A    between atoms: _174  and  _175
REMARK   75  A    between atoms: _174  and  _177
REMARK   76  A    between atoms: _177  and  _178
REMARK   77  A    between atoms: _178  and  _179
REMARK   78  A    between atoms: _184  and  _186
REMARK   79  A    between atoms: _186  and  _187
REMARK   80  A    between atoms: _186  and  _189
REMARK   81  A    between atoms: _191  and  _193
REMARK   82  A    between atoms: _193  and  _194
REMARK   83  A    between atoms: _193  and  _196
REMARK   84  A    between atoms: _198  and  _200
REMARK   85  A    between atoms: _200  and  _201
REMARK   86  A    between atoms: _200  and  _203
REMARK   87  A    between atoms: _203  and  _204
REMARK   88  A    between atoms: _207  and  _209
REMARK   89  A    between atoms: _209  and  _210
REMARK   90  A    between atoms: _209  and  _212
REMARK   91  A    between atoms: _212  and  _213
REMARK   92  A    between atoms: _216  and  _218
REMARK   93  A    between atoms: _218  and  _219
REMARK   94  A    between atoms: _218  and  _221
REMARK   95  A    between atoms: _221  and  _222
REMARK   96  A    between atoms: _222  and  _223
REMARK   97  A    between atoms: _223  and  _224
REMARK   98  A    between atoms: _224  and  _225
REMARK   99  A    between atoms: _229  and  _231
REMARK  100  A    between atoms: _231  and  _232
REMARK  101  A    between atoms: _231  and  _234
REMARK  102  A    between atoms: _234  and  _235
REMARK  103  A    between atoms: _240  and  _242
REMARK  104  A    between atoms: _242  and  _243
REMARK  105  A    between atoms: _242  and  _245
REMARK  106  A    between atoms: _245  and  _246
REMARK  107  A    between atoms: _251  and  _252
REMARK  108  A    between atoms: _254  and  _256
REMARK  109  A    between atoms: _256  and  _257
REMARK  110  A    between atoms: _256  and  _259
REMARK  111  A    between atoms: _262  and  _264
REMARK  112  A    between atoms: _264  and  _265
REMARK  113  A    between atoms: _264  and  _267
REMARK  114  A    between atoms: _267  and  _268
REMARK  115  A    between atoms: _268  and  _269
REMARK  116  A    between atoms: _269  and  _270
REMARK  117  A    between atoms: _270  and  _271
REMARK  118  A    between atoms: _275  and  _277
REMARK  119  A    between atoms: _277  and  _278
REMARK  120  A    between atoms: _277  and  _280
REMARK  121  A    between atoms: _280  and  _281
REMARK  122  A    between atoms: _284  and  _286
REMARK  123  A    between atoms: _286  and  _287
REMARK  124  A    between atoms: _286  and  _289
REMARK  125  A    between atoms: _289  and  _290
REMARK  126  A    between atoms: _290  and  _291
REMARK  127  A    between atoms: _291  and  _292
REMARK  128  A    between atoms: _292  and  _293
REMARK                            x       y       z     vdW  Elec       q    Type
REMARK                         _______ _______ _______ _____ _____    ______ ____
ROOT
ATOM      1  O   HOH     1      31.048  37.564  43.204  0.00  0.00    +0.000 OA
ENDROOT
TORSDOF 0
REMARK  Name = ../refined-set-2016/4g0p/4g0p_pocket.pdb
REMARK  128 active torsions:
REMARK  status: ('A' for Active; 'I' for Inactive)
REMARK    1  A    between atoms: _1  and  _3
REMARK    2  A    between atoms: _3  and  _4
REMARK    3  A    between atoms: _3  and  _6
REMARK    4  A    between atoms: _6  and  _7
REMARK    5  A    between atoms: _10  and  _12
REMARK    6  A    between atoms: _12  and  _13
REMARK    7  A    between atoms: _12  and  _15
REMARK    8  A    between atoms: _15  and  _16
REMARK    9  A    between atoms: _19  and  _21
REMARK   10  A    between atoms: _21  and  _22
REMARK   11  A    between atoms: _21  and  _24
REMARK   12  A    between atoms: _27  and  _29
REMARK   13  A    between atoms: _29  and  _30
REMARK   14  A    between atoms: _29  and  _32
REMARK   15  A    between atoms: _32  and  _33
REMARK   16  A    between atoms: _37  and  _38
REMARK   17  A    between atoms: _43  and  _45
REMARK   18  A    between atoms: _45  and  _46
REMARK   19  A    between atoms: _45  and  _48
REMARK   20  A    between atoms: _48  and  _49
REMARK   21  A    between atoms: _52  and  _54
REMARK   22  A    between atoms: _54  and  _55
REMARK   23  A    between atoms: _54  and  _57
REMARK   24  A    between atoms: _57  and  _58
REMARK   25  A    between atoms: _63  and  _65
REMARK   26  A    between atoms: _65  and  _66
REMARK   27  A    between atoms: _65  and  _68
REMARK   28  A    between atoms: _68  and  _69
REMARK   29  A    between atoms: _74  and  _76
REMARK   30  A    between atoms: _76  and  _77
REMARK   31  A    between atoms: _79  and  _81
REMARK   32  A    between atoms: _81  and  _82
REMARK   33  A    between atoms: _81  and  _84
REMARK   34  A    between atoms: _84  and  _85
REMARK   35  A    between atoms: _87  and  _89
REMARK   36  A    between atoms: _89  and  _90
REMARK   37  A    between atoms: _89  and  _92
REMARK   38  A    between atoms: _92  and  _93
REMARK   39  A    between atoms: _96  and  _98
REMARK   40  A    between atoms: _98  and  _99
REMARK   41  A    between atoms: _98  and  _101
REMARK   42  A    between atoms: _101  and  _102
REMARK   43  A    between atoms: _107  and  _108
REMARK   44  A    between atoms: _110  and  _112
REMARK   45  A    between atoms: _112  and  _113
REMARK   46  A    between atoms: _115  and  _117
REMARK   47  A    between atoms: _117  and  _118
REMARK   48  A    between atoms: _117  and  _120
REMARK   49  A    between atoms: _120  and  _121
REMARK   50  A    between atoms: _124  and  _126
REMARK   51  A    between atoms: _126  and  _127
REMARK   52  A    between atoms: _126  and  _129
REMARK   53  A    between atoms: _129  and  _130
REMARK   54  A    between atoms: _133  and  _135
REMARK   55  A    between atoms: _135  and  _136
REMARK   56  A    between atoms: _135  and  _138
REMARK   57  A    between atoms: _138  and  _139
REMARK   58  A    between atoms: _139  and  _140
REMARK   59  A    between atoms: _140  and  _141
REMARK   60  A    between atoms: _141  and  _142
REMARK   61  A    between atoms: _146  and  _148
REMARK   62  A    between atoms: _148  and  _149
REMARK   63  A    between atoms: _148  and  _151
REMARK   64  A    between atoms: _151  and  _152
REMARK   65  A    between atoms: _152  and  _153
REMARK   66  A    between atoms: _156  and  _158
REMARK   67  A    between atoms: _158  and  _159
REMARK   68  A    between atoms: _158  and  _161
REMARK   69  A    between atoms: _164  and  _166
REMARK   70  A    between atoms: _166  and  _167
REMARK   71  A    between atoms: _166  and  _169
REMARK   72  A    between atoms: _169  and  _170
REMARK   73  A    between atoms: _172  and  _174
REMARK   74  A    between atoms: _174  and  _175
REMARK   75  A    between atoms: _174  and  _177
REMARK   76  A    between atoms: _177  and  _178
REMARK   77  A    between atoms: _178  and  _179
REMARK   78  A    between atoms: _184  and  _186
REMARK   79  A    between atoms: _186  and  _187
REMARK   80  A    between atoms: _186  and  _189
REMARK   81  A    between atoms: _191  and  _193
REMARK   82  A    between atoms: _193  and  _194
REMARK   83  A    between atoms: _193  and  _196
REMARK   84  A    between atoms: _198  and  _200
REMARK   85  A    between atoms: _200  and  _201
REMARK   86  A    between atoms: _200  and  _203
REMARK   87  A    between atoms: _203  and  _204
REMARK   88  A    between atoms: _207  and  _209
REMARK   89  A    between atoms: _209  and  _210
REMARK   90  A    between atoms: _209  and  _212
REMARK   91  A    between atoms: _212  and  _213
REMARK   92  A    between atoms: _216  and  _218
REMARK   93  A    between atoms: _218  and  _219
REMARK   94  A    between atoms: _218  and  _221
REMARK   95  A    between atoms: _221  and  _222
REMARK   96  A    between atoms: _222  and  _223
REMARK   97  A    between atoms: _223  and  _224
REMARK   98  A    between atoms: _224  and  _225
REMARK   99  A    between atoms: _229  and  _231
REMARK  100  A    between atoms: _231  and  _232
REMARK  101  A    between atoms: _231  and  _234
REMARK  102  A    between atoms: _234  and  _235
REMARK  103  A    between atoms: _240  and  _242
REMARK  104  A    between atoms: _242  and  _243
REMARK  105  A    between atoms: _242  and  _245
REMARK  106  A    between atoms: _245  and  _246
REMARK  107  A    between atoms: _251  and  _252
REMARK  108  A    between atoms: _254  and  _256
REMARK  109  A    between atoms: _256  and  _257
REMARK  110  A    between atoms: _256  and  _259
REMARK  111  A    between atoms: _262  and  _264
REMARK  112  A    between atoms: _264  and  _265
REMARK  113  A    between atoms: _264  and  _267
REMARK  114  A    between atoms: _267  and  _268
REMARK  115  A    between atoms: _268  and  _269
REMARK  116  A    between atoms: _269  and  _270
REMARK  117  A    between atoms: _270  and  _271
REMARK  118  A    between atoms: _275  and  _277
REMARK  119  A    between atoms: _277  and  _278
REMARK  120  A    between atoms: _277  and  _280
REMARK  121  A    between atoms: _280  and  _281
REMARK  122  A    between atoms: _284  and  _286
REMARK  123  A    between atoms: _286  and  _287
REMARK  124  A    between atoms: _286  and  _289
REMARK  125  A    between atoms: _289  and  _290
REMARK  126  A    between atoms: _290  and  _291
REMARK  127  A    between atoms: _291  and  _292
REMARK  128  A    between atoms: _292  and  _293
REMARK                            x       y       z     vdW  Elec       q    Type
REMARK                         _______ _______ _______ _____ _____    ______ ____
ROOT
ATOM      1  O   HOH     1      24.955  40.895  35.217  0.00  0.00    +0.000 OA
ENDROOT
TORSDOF 0
REMARK  Name = ../refined-set-2016/4g0p/4g0p_pocket.pdb
REMARK  128 active torsions:
REMARK  status: ('A' for Active; 'I' for Inactive)
REMARK    1  A    between atoms: _1  and  _3
REMARK    2  A    between atoms: _3  and  _4
REMARK    3  A    between atoms: _3  and  _6
REMARK    4  A    between atoms: _6  and  _7
REMARK    5  A    between atoms: _10  and  _12
REMARK    6  A    between atoms: _12  and  _13
REMARK    7  A    between atoms: _12  and  _15
REMARK    8  A    between atoms: _15  and  _16
REMARK    9  A    between atoms: _19  and  _21
REMARK   10  A    between atoms: _21  and  _22
REMARK   11  A    between atoms: _21  and  _24
REMARK   12  A    between atoms: _27  and  _29
REMARK   13  A    between atoms: _29  and  _30
REMARK   14  A    between atoms: _29  and  _32
REMARK   15  A    between atoms: _32  and  _33
REMARK   16  A    between atoms: _37  and  _38
REMARK   17  A    between atoms: _43  and  _45
REMARK   18  A    between atoms: _45  and  _46
REMARK   19  A    between atoms: _45  and  _48
REMARK   20  A    between atoms: _48  and  _49
REMARK   21  A    between atoms: _52  and  _54
REMARK   22  A    between atoms: _54  and  _55
REMARK   23  A    between atoms: _54  and  _57
REMARK   24  A    between atoms: _57  and  _58
REMARK   25  A    between atoms: _63  and  _65
REMARK   26  A    between atoms: _65  and  _66
REMARK   27  A    between atoms: _65  and  _68
REMARK   28  A    between atoms: _68  and  _69
REMARK   29  A    between atoms: _74  and  _76
REMARK   30  A    between atoms: _76  and  _77
REMARK   31  A    between atoms: _79  and  _81
REMARK   32  A    between atoms: _81  and  _82
REMARK   33  A    between atoms: _81  and  _84
REMARK   34  A    between atoms: _84  and  _85
REMARK   35  A    between atoms: _87  and  _89
REMARK   36  A    between atoms: _89  and  _90
REMARK   37  A    between atoms: _89  and  _92
REMARK   38  A    between atoms: _92  and  _93
REMARK   39  A    between atoms: _96  and  _98
REMARK   40  A    between atoms: _98  and  _99
REMARK   41  A    between atoms: _98  and  _101
REMARK   42  A    between atoms: _101  and  _102
REMARK   43  A    between atoms: _107  and  _108
REMARK   44  A    between atoms: _110  and  _112
REMARK   45  A    between atoms: _112  and  _113
REMARK   46  A    between atoms: _115  and  _117
REMARK   47  A    between atoms: _117  and  _118
REMARK   48  A    between atoms: _117  and  _120
REMARK   49  A    between atoms: _120  and  _121
REMARK   50  A    between atoms: _124  and  _126
REMARK   51  A    between atoms: _126  and  _127
REMARK   52  A    between atoms: _126  and  _129
REMARK   53  A    between atoms: _129  and  _130
REMARK   54  A    between atoms: _133  and  _135
REMARK   55  A    between atoms: _135  and  _136
REMARK   56  A    between atoms: _135  and  _138
REMARK   57  A    between atoms: _138  and  _139
REMARK   58  A    between atoms: _139  and  _140
REMARK   59  A    between atoms: _140  and  _141
REMARK   60  A    between atoms: _141  and  _142
REMARK   61  A    between atoms: _146  and  _148
REMARK   62  A    between atoms: _148  and  _149
REMARK   63  A    between atoms: _148  and  _151
REMARK   64  A    between atoms: _151  and  _152
REMARK   65  A    between atoms: _152  and  _153
REMARK   66  A    between atoms: _156  and  _158
REMARK   67  A    between atoms: _158  and  _159
REMARK   68  A    between atoms: _158  and  _161
REMARK   69  A    between atoms: _164  and  _166
REMARK   70  A    between atoms: _166  and  _167
REMARK   71  A    between atoms: _166  and  _169
REMARK   72  A    between atoms: _169  and  _170
REMARK   73  A    between atoms: _172  and  _174
REMARK   74  A    between atoms: _174  and  _175
REMARK   75  A    between atoms: _174  and  _177
REMARK   76  A    between atoms: _177  and  _178
REMARK   77  A    between atoms: _178  and  _179
REMARK   78  A    between atoms: _184  and  _186
REMARK   79  A    between atoms: _186  and  _187
REMARK   80  A    between atoms: _186  and  _189
REMARK   81  A    between atoms: _191  and  _193
REMARK   82  A    between atoms: _193  and  _194
REMARK   83  A    between atoms: _193  and  _196
REMARK   84  A    between atoms: _198  and  _200
REMARK   85  A    between atoms: _200  and  _201
REMARK   86  A    between atoms: _200  and  _203
REMARK   87  A    between atoms: _203  and  _204
REMARK   88  A    between atoms: _207  and  _209
REMARK   89  A    between atoms: _209  and  _210
REMARK   90  A    between atoms: _209  and  _212
REMARK   91  A    between atoms: _212  and  _213
REMARK   92  A    between atoms: _216  and  _218
REMARK   93  A    between atoms: _218  and  _219
REMARK   94  A    between atoms: _218  and  _221
REMARK   95  A    between atoms: _221  and  _222
REMARK   96  A    between atoms: _222  and  _223
REMARK   97  A    between atoms: _223  and  _224
REMARK   98  A    between atoms: _224  and  _225
REMARK   99  A    between atoms: _229  and  _231
REMARK  100  A    between atoms: _231  and  _232
REMARK  101  A    between atoms: _231  and  _234
REMARK  102  A    between atoms: _234  and  _235
REMARK  103  A    between atoms: _240  and  _242
REMARK  104  A    between atoms: _242  and  _243
REMARK  105  A    between atoms: _242  and  _245
REMARK  106  A    between atoms: _245  and  _246
REMARK  107  A    between atoms: _251  and  _252
REMARK  108  A    between atoms: _254  and  _256
REMARK  109  A    between atoms: _256  and  _257
REMARK  110  A    between atoms: _256  and  _259
REMARK  111  A    between atoms: _262  and  _264
REMARK  112  A    between atoms: _264  and  _265
REMARK  113  A    between atoms: _264  and  _267
REMARK  114  A    between atoms: _267  and  _268
REMARK  115  A    between atoms: _268  and  _269
REMARK  116  A    between atoms: _269  and  _270
REMARK  117  A    between atoms: _270  and  _271
REMARK  118  A    between atoms: _275  and  _277
REMARK  119  A    between atoms: _277  and  _278
REMARK  120  A    between atoms: _277  and  _280
REMARK  121  A    between atoms: _280  and  _281
REMARK  122  A    between atoms: _284  and  _286
REMARK  123  A    between atoms: _286  and  _287
REMARK  124  A    between atoms: _286  and  _289
REMARK  125  A    between atoms: _289  and  _290
REMARK  126  A    between atoms: _290  and  _291
REMARK  127  A    between atoms: _291  and  _292
REMARK  128  A    between atoms: _292  and  _293
REMARK                            x       y       z     vdW  Elec       q    Type
REMARK                         _______ _______ _______ _____ _____    ______ ____
ROOT
ATOM      1  O   HOH     1      27.759  33.961  43.560  0.00  0.00    +0.000 OA
ENDROOT
TORSDOF 0
REMARK  Name = ../refined-set-2016/4g0p/4g0p_pocket.pdb
REMARK  128 active torsions:
REMARK  status: ('A' for Active; 'I' for Inactive)
REMARK    1  A    between atoms: _1  and  _3
REMARK    2  A    between atoms: _3  and  _4
REMARK    3  A    between atoms: _3  and  _6
REMARK    4  A    between atoms: _6  and  _7
REMARK    5  A    between atoms: _10  and  _12
REMARK    6  A    between atoms: _12  and  _13
REMARK    7  A    between atoms: _12  and  _15
REMARK    8  A    between atoms: _15  and  _16
REMARK    9  A    between atoms: _19  and  _21
REMARK   10  A    between atoms: _21  and  _22
REMARK   11  A    between atoms: _21  and  _24
REMARK   12  A    between atoms: _27  and  _29
REMARK   13  A    between atoms: _29  and  _30
REMARK   14  A    between atoms: _29  and  _32
REMARK   15  A    between atoms: _32  and  _33
REMARK   16  A    between atoms: _37  and  _38
REMARK   17  A    between atoms: _43  and  _45
REMARK   18  A    between atoms: _45  and  _46
REMARK   19  A    between atoms: _45  and  _48
REMARK   20  A    between atoms: _48  and  _49
REMARK   21  A    between atoms: _52  and  _54
REMARK   22  A    between atoms: _54  and  _55
REMARK   23  A    between atoms: _54  and  _57
REMARK   24  A    between atoms: _57  and  _58
REMARK   25  A    between atoms: _63  and  _65
REMARK   26  A    between atoms: _65  and  _66
REMARK   27  A    between atoms: _65  and  _68
REMARK   28  A    between atoms: _68  and  _69
REMARK   29  A    between atoms: _74  and  _76
REMARK   30  A    between atoms: _76  and  _77
REMARK   31  A    between atoms: _79  and  _81
REMARK   32  A    between atoms: _81  and  _82
REMARK   33  A    between atoms: _81  and  _84
REMARK   34  A    between atoms: _84  and  _85
REMARK   35  A    between atoms: _87  and  _89
REMARK   36  A    between atoms: _89  and  _90
REMARK   37  A    between atoms: _89  and  _92
REMARK   38  A    between atoms: _92  and  _93
REMARK   39  A    between atoms: _96  and  _98
REMARK   40  A    between atoms: _98  and  _99
REMARK   41  A    between atoms: _98  and  _101
REMARK   42  A    between atoms: _101  and  _102
REMARK   43  A    between atoms: _107  and  _108
REMARK   44  A    between atoms: _110  and  _112
REMARK   45  A    between atoms: _112  and  _113
REMARK   46  A    between atoms: _115  and  _117
REMARK   47  A    between atoms: _117  and  _118
REMARK   48  A    between atoms: _117  and  _120
REMARK   49  A    between atoms: _120  and  _121
REMARK   50  A    between atoms: _124  and  _126
REMARK   51  A    between atoms: _126  and  _127
REMARK   52  A    between atoms: _126  and  _129
REMARK   53  A    between atoms: _129  and  _130
REMARK   54  A    between atoms: _133  and  _135
REMARK   55  A    between atoms: _135  and  _136
REMARK   56  A    between atoms: _135  and  _138
REMARK   57  A    between atoms: _138  and  _139
REMARK   58  A    between atoms: _139  and  _140
REMARK   59  A    between atoms: _140  and  _141
REMARK   60  A    between atoms: _141  and  _142
REMARK   61  A    between atoms: _146  and  _148
REMARK   62  A    between atoms: _148  and  _149
REMARK   63  A    between atoms: _148  and  _151
REMARK   64  A    between atoms: _151  and  _152
REMARK   65  A    between atoms: _152  and  _153
REMARK   66  A    between atoms: _156  and  _158
REMARK   67  A    between atoms: _158  and  _159
REMARK   68  A    between atoms: _158  and  _161
REMARK   69  A    between atoms: _164  and  _166
REMARK   70  A    between atoms: _166  and  _167
REMARK   71  A    between atoms: _166  and  _169
REMARK   72  A    between atoms: _169  and  _170
REMARK   73  A    between atoms: _172  and  _174
REMARK   74  A    between atoms: _174  and  _175
REMARK   75  A    between atoms: _174  and  _177
REMARK   76  A    between atoms: _177  and  _178
REMARK   77  A    between atoms: _178  and  _179
REMARK   78  A    between atoms: _184  and  _186
REMARK   79  A    between atoms: _186  and  _187
REMARK   80  A    between atoms: _186  and  _189
REMARK   81  A    between atoms: _191  and  _193
REMARK   82  A    between atoms: _193  and  _194
REMARK   83  A    between atoms: _193  and  _196
REMARK   84  A    between atoms: _198  and  _200
REMARK   85  A    between atoms: _200  and  _201
REMARK   86  A    between atoms: _200  and  _203
REMARK   87  A    between atoms: _203  and  _204
REMARK   88  A    between atoms: _207  and  _209
REMARK   89  A    between atoms: _209  and  _210
REMARK   90  A    between atoms: _209  and  _212
REMARK   91  A    between atoms: _212  and  _213
REMARK   92  A    between atoms: _216  and  _218
REMARK   93  A    between atoms: _218  and  _219
REMARK   94  A    between atoms: _218  and  _221
REMARK   95  A    between atoms: _221  and  _222
REMARK   96  A    between atoms: _222  and  _223
REMARK   97  A    between atoms: _223  and  _224
REMARK   98  A    between atoms: _224  and  _225
REMARK   99  A    between atoms: _229  and  _231
REMARK  100  A    between atoms: _231  and  _232
REMARK  101  A    between atoms: _231  and  _234
REMARK  102  A    between atoms: _234  and  _235
REMARK  103  A    between atoms: _240  and  _242
REMARK  104  A    between atoms: _242  and  _243
REMARK  105  A    between atoms: _242  and  _245
REMARK  106  A    between atoms: _245  and  _246
REMARK  107  A    between atoms: _251  and  _252
REMARK  108  A    between atoms: _254  and  _256
REMARK  109  A    between atoms: _256  and  _257
REMARK  110  A    between atoms: _256  and  _259
REMARK  111  A    between atoms: _262  and  _264
REMARK  112  A    between atoms: _264  and  _265
REMARK  113  A    between atoms: _264  and  _267
REMARK  114  A    between atoms: _267  and  _268
REMARK  115  A    between atoms: _268  and  _269
REMARK  116  A    between atoms: _269  and  _270
REMARK  117  A    between atoms: _270  and  _271
REMARK  118  A    between atoms: _275  and  _277
REMARK  119  A    between atoms: _277  and  _278
REMARK  120  A    between atoms: _277  and  _280
REMARK  121  A    between atoms: _280  and  _281
REMARK  122  A    between atoms: _284  and  _286
REMARK  123  A    between atoms: _286  and  _287
REMARK  124  A    between atoms: _286  and  _289
REMARK  125  A    between atoms: _289  and  _290
REMARK  126  A    between atoms: _290  and  _291
REMARK  127  A    between atoms: _291  and  _292
REMARK  128  A    between atoms: _292  and  _293
REMARK                            x       y       z     vdW  Elec       q    Type
REMARK                         _______ _______ _______ _____ _____    ______ ____
ROOT
ATOM      1  O   HOH     1      30.575  41.142  37.263  0.00  0.00    +0.000 OA
ENDROOT
TORSDOF 0
REMARK  Name = ../refined-set-2016/4g0p/4g0p_pocket.pdb
REMARK  128 active torsions:
REMARK  status: ('A' for Active; 'I' for Inactive)
REMARK    1  A    between atoms: _1  and  _3
REMARK    2  A    between atoms: _3  and  _4
REMARK    3  A    between atoms: _3  and  _6
REMARK    4  A    between atoms: _6  and  _7
REMARK    5  A    between atoms: _10  and  _12
REMARK    6  A    between atoms: _12  and  _13
REMARK    7  A    between atoms: _12  and  _15
REMARK    8  A    between atoms: _15  and  _16
REMARK    9  A    between atoms: _19  and  _21
REMARK   10  A    between atoms: _21  and  _22
REMARK   11  A    between atoms: _21  and  _24
REMARK   12  A    between atoms: _27  and  _29
REMARK   13  A    between atoms: _29  and  _30
REMARK   14  A    between atoms: _29  and  _32
REMARK   15  A    between atoms: _32  and  _33
REMARK   16  A    between atoms: _37  and  _38
REMARK   17  A    between atoms: _43  and  _45
REMARK   18  A    between atoms: _45  and  _46
REMARK   19  A    between atoms: _45  and  _48
REMARK   20  A    between atoms: _48  and  _49
REMARK   21  A    between atoms: _52  and  _54
REMARK   22  A    between atoms: _54  and  _55
REMARK   23  A    between atoms: _54  and  _57
REMARK   24  A    between atoms: _57  and  _58
REMARK   25  A    between atoms: _63  and  _65
REMARK   26  A    between atoms: _65  and  _66
REMARK   27  A    between atoms: _65  and  _68
REMARK   28  A    between atoms: _68  and  _69
REMARK   29  A    between atoms: _74  and  _76
REMARK   30  A    between atoms: _76  and  _77
REMARK   31  A    between atoms: _79  and  _81
REMARK   32  A    between atoms: _81  and  _82
REMARK   33  A    between atoms: _81  and  _84
REMARK   34  A    between atoms: _84  and  _85
REMARK   35  A    between atoms: _87  and  _89
REMARK   36  A    between atoms: _89  and  _90
REMARK   37  A    between atoms: _89  and  _92
REMARK   38  A    between atoms: _92  and  _93
REMARK   39  A    between atoms: _96  and  _98
REMARK   40  A    between atoms: _98  and  _99
REMARK   41  A    between atoms: _98  and  _101
REMARK   42  A    between atoms: _101  and  _102
REMARK   43  A    between atoms: _107  and  _108
REMARK   44  A    between atoms: _110  and  _112
REMARK   45  A    between atoms: _112  and  _113
REMARK   46  A    between atoms: _115  and  _117
REMARK   47  A    between atoms: _117  and  _118
REMARK   48  A    between atoms: _117  and  _120
REMARK   49  A    between atoms: _120  and  _121
REMARK   50  A    between atoms: _124  and  _126
REMARK   51  A    between atoms: _126  and  _127
REMARK   52  A    between atoms: _126  and  _129
REMARK   53  A    between atoms: _129  and  _130
REMARK   54  A    between atoms: _133  and  _135
REMARK   55  A    between atoms: _135  and  _136
REMARK   56  A    between atoms: _135  and  _138
REMARK   57  A    between atoms: _138  and  _139
REMARK   58  A    between atoms: _139  and  _140
REMARK   59  A    between atoms: _140  and  _141
REMARK   60  A    between atoms: _141  and  _142
REMARK   61  A    between atoms: _146  and  _148
REMARK   62  A    between atoms: _148  and  _149
REMARK   63  A    between atoms: _148  and  _151
REMARK   64  A    between atoms: _151  and  _152
REMARK   65  A    between atoms: _152  and  _153
REMARK   66  A    between atoms: _156  and  _158
REMARK   67  A    between atoms: _158  and  _159
REMARK   68  A    between atoms: _158  and  _161
REMARK   69  A    between atoms: _164  and  _166
REMARK   70  A    between atoms: _166  and  _167
REMARK   71  A    between atoms: _166  and  _169
REMARK   72  A    between atoms: _169  and  _170
REMARK   73  A    between atoms: _172  and  _174
REMARK   74  A    between atoms: _174  and  _175
REMARK   75  A    between atoms: _174  and  _177
REMARK   76  A    between atoms: _177  and  _178
REMARK   77  A    between atoms: _178  and  _179
REMARK   78  A    between atoms: _184  and  _186
REMARK   79  A    between atoms: _186  and  _187
REMARK   80  A    between atoms: _186  and  _189
REMARK   81  A    between atoms: _191  and  _193
REMARK   82  A    between atoms: _193  and  _194
REMARK   83  A    between atoms: _193  and  _196
REMARK   84  A    between atoms: _198  and  _200
REMARK   85  A    between atoms: _200  and  _201
REMARK   86  A    between atoms: _200  and  _203
REMARK   87  A    between atoms: _203  and  _204
REMARK   88  A    between atoms: _207  and  _209
REMARK   89  A    between atoms: _209  and  _210
REMARK   90  A    between atoms: _209  and  _212
REMARK   91  A    between atoms: _212  and  _213
REMARK   92  A    between atoms: _216  and  _218
REMARK   93  A    between atoms: _218  and  _219
REMARK   94  A    between atoms: _218  and  _221
REMARK   95  A    between atoms: _221  and  _222
REMARK   96  A    between atoms: _222  and  _223
REMARK   97  A    between atoms: _223  and  _224
REMARK   98  A    between atoms: _224  and  _225
REMARK   99  A    between atoms: _229  and  _231
REMARK  100  A    between atoms: _231  and  _232
REMARK  101  A    between atoms: _231  and  _234
REMARK  102  A    between atoms: _234  and  _235
REMARK  103  A    between atoms: _240  and  _242
REMARK  104  A    between atoms: _242  and  _243
REMARK  105  A    between atoms: _242  and  _245
REMARK  106  A    between atoms: _245  and  _246
REMARK  107  A    between atoms: _251  and  _252
REMARK  108  A    between atoms: _254  and  _256
REMARK  109  A    between atoms: _256  and  _257
REMARK  110  A    between atoms: _256  and  _259
REMARK  111  A    between atoms: _262  and  _264
REMARK  112  A    between atoms: _264  and  _265
REMARK  113  A    between atoms: _264  and  _267
REMARK  114  A    between atoms: _267  and  _268
REMARK  115  A    between atoms: _268  and  _269
REMARK  116  A    between atoms: _269  and  _270
REMARK  117  A    between atoms: _270  and  _271
REMARK  118  A    between atoms: _275  and  _277
REMARK  119  A    between atoms: _277  and  _278
REMARK  120  A    between atoms: _277  and  _280
REMARK  121  A    between atoms: _280  and  _281
REMARK  122  A    between atoms: _284  and  _286
REMARK  123  A    between atoms: _286  and  _287
REMARK  124  A    between atoms: _286  and  _289
REMARK  125  A    between atoms: _289  and  _290
REMARK  126  A    between atoms: _290  and  _291
REMARK  127  A    between atoms: _291  and  _292
REMARK  128  A    between atoms: _292  and  _293
REMARK                            x       y       z     vdW  Elec       q    Type
REMARK                         _______ _______ _______ _____ _____    ______ ____
ROOT
ATOM      1  O   HOH     1      31.295  34.126  38.056  0.00  0.00    +0.000 OA
ENDROOT
TORSDOF 0
REMARK  Name = ../refined-set-2016/4g0p/4g0p_pocket.pdb
REMARK  128 active torsions:
REMARK  status: ('A' for Active; 'I' for Inactive)
REMARK    1  A    between atoms: _1  and  _3
REMARK    2  A    between atoms: _3  and  _4
REMARK    3  A    between atoms: _3  and  _6
REMARK    4  A    between atoms: _6  and  _7
REMARK    5  A    between atoms: _10  and  _12
REMARK    6  A    between atoms: _12  and  _13
REMARK    7  A    between atoms: _12  and  _15
REMARK    8  A    between atoms: _15  and  _16
REMARK    9  A    between atoms: _19  and  _21
REMARK   10  A    between atoms: _21  and  _22
REMARK   11  A    between atoms: _21  and  _24
REMARK   12  A    between atoms: _27  and  _29
REMARK   13  A    between atoms: _29  and  _30
REMARK   14  A    between atoms: _29  and  _32
REMARK   15  A    between atoms: _32  and  _33
REMARK   16  A    between atoms: _37  and  _38
REMARK   17  A    between atoms: _43  and  _45
REMARK   18  A    between atoms: _45  and  _46
REMARK   19  A    between atoms: _45  and  _48
REMARK   20  A    between atoms: _48  and  _49
REMARK   21  A    between atoms: _52  and  _54
REMARK   22  A    between atoms: _54  and  _55
REMARK   23  A    between atoms: _54  and  _57
REMARK   24  A    between atoms: _57  and  _58
REMARK   25  A    between atoms: _63  and  _65
REMARK   26  A    between atoms: _65  and  _66
REMARK   27  A    between atoms: _65  and  _68
REMARK   28  A    between atoms: _68  and  _69
REMARK   29  A    between atoms: _74  and  _76
REMARK   30  A    between atoms: _76  and  _77
REMARK   31  A    between atoms: _79  and  _81
REMARK   32  A    between atoms: _81  and  _82
REMARK   33  A    between atoms: _81  and  _84
REMARK   34  A    between atoms: _84  and  _85
REMARK   35  A    between atoms: _87  and  _89
REMARK   36  A    between atoms: _89  and  _90
REMARK   37  A    between atoms: _89  and  _92
REMARK   38  A    between atoms: _92  and  _93
REMARK   39  A    between atoms: _96  and  _98
REMARK   40  A    between atoms: _98  and  _99
REMARK   41  A    between atoms: _98  and  _101
REMARK   42  A    between atoms: _101  and  _102
REMARK   43  A    between atoms: _107  and  _108
REMARK   44  A    between atoms: _110  and  _112
REMARK   45  A    between atoms: _112  and  _113
REMARK   46  A    between atoms: _115  and  _117
REMARK   47  A    between atoms: _117  and  _118
REMARK   48  A    between atoms: _117  and  _120
REMARK   49  A    between atoms: _120  and  _121
REMARK   50  A    between atoms: _124  and  _126
REMARK   51  A    between atoms: _126  and  _127
REMARK   52  A    between atoms: _126  and  _129
REMARK   53  A    between atoms: _129  and  _130
REMARK   54  A    between atoms: _133  and  _135
REMARK   55  A    between atoms: _135  and  _136
REMARK   56  A    between atoms: _135  and  _138
REMARK   57  A    between atoms: _138  and  _139
REMARK   58  A    between atoms: _139  and  _140
REMARK   59  A    between atoms: _140  and  _141
REMARK   60  A    between atoms: _141  and  _142
REMARK   61  A    between atoms: _146  and  _148
REMARK   62  A    between atoms: _148  and  _149
REMARK   63  A    between atoms: _148  and  _151
REMARK   64  A    between atoms: _151  and  _152
REMARK   65  A    between atoms: _152  and  _153
REMARK   66  A    between atoms: _156  and  _158
REMARK   67  A    between atoms: _158  and  _159
REMARK   68  A    between atoms: _158  and  _161
REMARK   69  A    between atoms: _164  and  _166
REMARK   70  A    between atoms: _166  and  _167
REMARK   71  A    between atoms: _166  and  _169
REMARK   72  A    between atoms: _169  and  _170
REMARK   73  A    between atoms: _172  and  _174
REMARK   74  A    between atoms: _174  and  _175
REMARK   75  A    between atoms: _174  and  _177
REMARK   76  A    between atoms: _177  and  _178
REMARK   77  A    between atoms: _178  and  _179
REMARK   78  A    between atoms: _184  and  _186
REMARK   79  A    between atoms: _186  and  _187
REMARK   80  A    between atoms: _186  and  _189
REMARK   81  A    between atoms: _191  and  _193
REMARK   82  A    between atoms: _193  and  _194
REMARK   83  A    between atoms: _193  and  _196
REMARK   84  A    between atoms: _198  and  _200
REMARK   85  A    between atoms: _200  and  _201
REMARK   86  A    between atoms: _200  and  _203
REMARK   87  A    between atoms: _203  and  _204
REMARK   88  A    between atoms: _207  and  _209
REMARK   89  A    between atoms: _209  and  _210
REMARK   90  A    between atoms: _209  and  _212
REMARK   91  A    between atoms: _212  and  _213
REMARK   92  A    between atoms: _216  and  _218
REMARK   93  A    between atoms: _218  and  _219
REMARK   94  A    between atoms: _218  and  _221
REMARK   95  A    between atoms: _221  and  _222
REMARK   96  A    between atoms: _222  and  _223
REMARK   97  A    between atoms: _223  and  _224
REMARK   98  A    between atoms: _224  and  _225
REMARK   99  A    between atoms: _229  and  _231
REMARK  100  A    between atoms: _231  and  _232
REMARK  101  A    between atoms: _231  and  _234
REMARK  102  A    between atoms: _234  and  _235
REMARK  103  A    between atoms: _240  and  _242
REMARK  104  A    between atoms: _242  and  _243
REMARK  105  A    between atoms: _242  and  _245
REMARK  106  A    between atoms: _245  and  _246
REMARK  107  A    between atoms: _251  and  _252
REMARK  108  A    between atoms: _254  and  _256
REMARK  109  A    between atoms: _256  and  _257
REMARK  110  A    between atoms: _256  and  _259
REMARK  111  A    between atoms: _262  and  _264
REMARK  112  A    between atoms: _264  and  _265
REMARK  113  A    between atoms: _264  and  _267
REMARK  114  A    between atoms: _267  and  _268
REMARK  115  A    between atoms: _268  and  _269
REMARK  116  A    between atoms: _269  and  _270
REMARK  117  A    between atoms: _270  and  _271
REMARK  118  A    between atoms: _275  and  _277
REMARK  119  A    between atoms: _277  and  _278
REMARK  120  A    between atoms: _277  and  _280
REMARK  121  A    between atoms: _280  and  _281
REMARK  122  A    between atoms: _284  and  _286
REMARK  123  A    between atoms: _286  and  _287
REMARK  124  A    between atoms: _286  and  _289
REMARK  125  A    between atoms: _289  and  _290
REMARK  126  A    between atoms: _290  and  _291
REMARK  127  A    between atoms: _291  and  _292
REMARK  128  A    between atoms: _292  and  _293
REMARK                            x       y       z     vdW  Elec       q    Type
REMARK                         _______ _______ _______ _____ _____    ______ ____
ROOT
ATOM      1  O   HOH     1      28.954  31.562  43.698  0.00  0.00    +0.000 OA
ENDROOT
TORSDOF 0
REMARK  Name = ../refined-set-2016/4g0p/4g0p_pocket.pdb
REMARK  128 active torsions:
REMARK  status: ('A' for Active; 'I' for Inactive)
REMARK    1  A    between atoms: _1  and  _3
REMARK    2  A    between atoms: _3  and  _4
REMARK    3  A    between atoms: _3  and  _6
REMARK    4  A    between atoms: _6  and  _7
REMARK    5  A    between atoms: _10  and  _12
REMARK    6  A    between atoms: _12  and  _13
REMARK    7  A    between atoms: _12  and  _15
REMARK    8  A    between atoms: _15  and  _16
REMARK    9  A    between atoms: _19  and  _21
REMARK   10  A    between atoms: _21  and  _22
REMARK   11  A    between atoms: _21  and  _24
REMARK   12  A    between atoms: _27  and  _29
REMARK   13  A    between atoms: _29  and  _30
REMARK   14  A    between atoms: _29  and  _32
REMARK   15  A    between atoms: _32  and  _33
REMARK   16  A    between atoms: _37  and  _38
REMARK   17  A    between atoms: _43  and  _45
REMARK   18  A    between atoms: _45  and  _46
REMARK   19  A    between atoms: _45  and  _48
REMARK   20  A    between atoms: _48  and  _49
REMARK   21  A    between atoms: _52  and  _54
REMARK   22  A    between atoms: _54  and  _55
REMARK   23  A    between atoms: _54  and  _57
REMARK   24  A    between atoms: _57  and  _58
REMARK   25  A    between atoms: _63  and  _65
REMARK   26  A    between atoms: _65  and  _66
REMARK   27  A    between atoms: _65  and  _68
REMARK   28  A    between atoms: _68  and  _69
REMARK   29  A    between atoms: _74  and  _76
REMARK   30  A    between atoms: _76  and  _77
REMARK   31  A    between atoms: _79  and  _81
REMARK   32  A    between atoms: _81  and  _82
REMARK   33  A    between atoms: _81  and  _84
REMARK   34  A    between atoms: _84  and  _85
REMARK   35  A    between atoms: _87  and  _89
REMARK   36  A    between atoms: _89  and  _90
REMARK   37  A    between atoms: _89  and  _92
REMARK   38  A    between atoms: _92  and  _93
REMARK   39  A    between atoms: _96  and  _98
REMARK   40  A    between atoms: _98  and  _99
REMARK   41  A    between atoms: _98  and  _101
REMARK   42  A    between atoms: _101  and  _102
REMARK   43  A    between atoms: _107  and  _108
REMARK   44  A    between atoms: _110  and  _112
REMARK   45  A    between atoms: _112  and  _113
REMARK   46  A    between atoms: _115  and  _117
REMARK   47  A    between atoms: _117  and  _118
REMARK   48  A    between atoms: _117  and  _120
REMARK   49  A    between atoms: _120  and  _121
REMARK   50  A    between atoms: _124  and  _126
REMARK   51  A    between atoms: _126  and  _127
REMARK   52  A    between atoms: _126  and  _129
REMARK   53  A    between atoms: _129  and  _130
REMARK   54  A    between atoms: _133  and  _135
REMARK   55  A    between atoms: _135  and  _136
REMARK   56  A    between atoms: _135  and  _138
REMARK   57  A    between atoms: _138  and  _139
REMARK   58  A    between atoms: _139  and  _140
REMARK   59  A    between atoms: _140  and  _141
REMARK   60  A    between atoms: _141  and  _142
REMARK   61  A    between atoms: _146  and  _148
REMARK   62  A    between atoms: _148  and  _149
REMARK   63  A    between atoms: _148  and  _151
REMARK   64  A    between atoms: _151  and  _152
REMARK   65  A    between atoms: _152  and  _153
REMARK   66  A    between atoms: _156  and  _158
REMARK   67  A    between atoms: _158  and  _159
REMARK   68  A    between atoms: _158  and  _161
REMARK   69  A    between atoms: _164  and  _166
REMARK   70  A    between atoms: _166  and  _167
REMARK   71  A    between atoms: _166  and  _169
REMARK   72  A    between atoms: _169  and  _170
REMARK   73  A    between atoms: _172  and  _174
REMARK   74  A    between atoms: _174  and  _175
REMARK   75  A    between atoms: _174  and  _177
REMARK   76  A    between atoms: _177  and  _178
REMARK   77  A    between atoms: _178  and  _179
REMARK   78  A    between atoms: _184  and  _186
REMARK   79  A    between atoms: _186  and  _187
REMARK   80  A    between atoms: _186  and  _189
REMARK   81  A    between atoms: _191  and  _193
REMARK   82  A    between atoms: _193  and  _194
REMARK   83  A    between atoms: _193  and  _196
REMARK   84  A    between atoms: _198  and  _200
REMARK   85  A    between atoms: _200  and  _201
REMARK   86  A    between atoms: _200  and  _203
REMARK   87  A    between atoms: _203  and  _204
REMARK   88  A    between atoms: _207  and  _209
REMARK   89  A    between atoms: _209  and  _210
REMARK   90  A    between atoms: _209  and  _212
REMARK   91  A    between atoms: _212  and  _213
REMARK   92  A    between atoms: _216  and  _218
REMARK   93  A    between atoms: _218  and  _219
REMARK   94  A    between atoms: _218  and  _221
REMARK   95  A    between atoms: _221  and  _222
REMARK   96  A    between atoms: _222  and  _223
REMARK   97  A    between atoms: _223  and  _224
REMARK   98  A    between atoms: _224  and  _225
REMARK   99  A    between atoms: _229  and  _231
REMARK  100  A    between atoms: _231  and  _232
REMARK  101  A    between atoms: _231  and  _234
REMARK  102  A    between atoms: _234  and  _235
REMARK  103  A    between atoms: _240  and  _242
REMARK  104  A    between atoms: _242  and  _243
REMARK  105  A    between atoms: _242  and  _245
REMARK  106  A    between atoms: _245  and  _246
REMARK  107  A    between atoms: _251  and  _252
REMARK  108  A    between atoms: _254  and  _256
REMARK  109  A    between atoms: _256  and  _257
REMARK  110  A    between atoms: _256  and  _259
REMARK  111  A    between atoms: _262  and  _264
REMARK  112  A    between atoms: _264  and  _265
REMARK  113  A    between atoms: _264  and  _267
REMARK  114  A    between atoms: _267  and  _268
REMARK  115  A    between atoms: _268  and  _269
REMARK  116  A    between atoms: _269  and  _270
REMARK  117  A    between atoms: _270  and  _271
REMARK  118  A    between atoms: _275  and  _277
REMARK  119  A    between atoms: _277  and  _278
REMARK  120  A    between atoms: _277  and  _280
REMARK  121  A    between atoms: _280  and  _281
REMARK  122  A    between atoms: _284  and  _286
REMARK  123  A    between atoms: _286  and  _287
REMARK  124  A    between atoms: _286  and  _289
REMARK  125  A    between atoms: _289  and  _290
REMARK  126  A    between atoms: _290  and  _291
REMARK  127  A    between atoms: _291  and  _292
REMARK  128  A    between atoms: _292  and  _293
REMARK                            x       y       z     vdW  Elec       q    Type
REMARK                         _______ _______ _______ _____ _____    ______ ____
ROOT
ATOM      1  O   HOH     1      33.003  31.203  41.794  0.00  0.00    +0.000 OA
ENDROOT
TORSDOF 0
REMARK  Name = ../refined-set-2016/4g0p/4g0p_pocket.pdb
REMARK  128 active torsions:
REMARK  status: ('A' for Active; 'I' for Inactive)
REMARK    1  A    between atoms: _1  and  _3
REMARK    2  A    between atoms: _3  and  _4
REMARK    3  A    between atoms: _3  and  _6
REMARK    4  A    between atoms: _6  and  _7
REMARK    5  A    between atoms: _10  and  _12
REMARK    6  A    between atoms: _12  and  _13
REMARK    7  A    between atoms: _12  and  _15
REMARK    8  A    between atoms: _15  and  _16
REMARK    9  A    between atoms: _19  and  _21
REMARK   10  A    between atoms: _21  and  _22
REMARK   11  A    between atoms: _21  and  _24
REMARK   12  A    between atoms: _27  and  _29
REMARK   13  A    between atoms: _29  and  _30
REMARK   14  A    between atoms: _29  and  _32
REMARK   15  A    between atoms: _32  and  _33
REMARK   16  A    between atoms: _37  and  _38
REMARK   17  A    between atoms: _43  and  _45
REMARK   18  A    between atoms: _45  and  _46
REMARK   19  A    between atoms: _45  and  _48
REMARK   20  A    between atoms: _48  and  _49
REMARK   21  A    between atoms: _52  and  _54
REMARK   22  A    between atoms: _54  and  _55
REMARK   23  A    between atoms: _54  and  _57
REMARK   24  A    between atoms: _57  and  _58
REMARK   25  A    between atoms: _63  and  _65
REMARK   26  A    between atoms: _65  and  _66
REMARK   27  A    between atoms: _65  and  _68
REMARK   28  A    between atoms: _68  and  _69
REMARK   29  A    between atoms: _74  and  _76
REMARK   30  A    between atoms: _76  and  _77
REMARK   31  A    between atoms: _79  and  _81
REMARK   32  A    between atoms: _81  and  _82
REMARK   33  A    between atoms: _81  and  _84
REMARK   34  A    between atoms: _84  and  _85
REMARK   35  A    between atoms: _87  and  _89
REMARK   36  A    between atoms: _89  and  _90
REMARK   37  A    between atoms: _89  and  _92
REMARK   38  A    between atoms: _92  and  _93
REMARK   39  A    between atoms: _96  and  _98
REMARK   40  A    between atoms: _98  and  _99
REMARK   41  A    between atoms: _98  and  _101
REMARK   42  A    between atoms: _101  and  _102
REMARK   43  A    between atoms: _107  and  _108
REMARK   44  A    between atoms: _110  and  _112
REMARK   45  A    between atoms: _112  and  _113
REMARK   46  A    between atoms: _115  and  _117
REMARK   47  A    between atoms: _117  and  _118
REMARK   48  A    between atoms: _117  and  _120
REMARK   49  A    between atoms: _120  and  _121
REMARK   50  A    between atoms: _124  and  _126
REMARK   51  A    between atoms: _126  and  _127
REMARK   52  A    between atoms: _126  and  _129
REMARK   53  A    between atoms: _129  and  _130
REMARK   54  A    between atoms: _133  and  _135
REMARK   55  A    between atoms: _135  and  _136
REMARK   56  A    between atoms: _135  and  _138
REMARK   57  A    between atoms: _138  and  _139
REMARK   58  A    between atoms: _139  and  _140
REMARK   59  A    between atoms: _140  and  _141
REMARK   60  A    between atoms: _141  and  _142
REMARK   61  A    between atoms: _146  and  _148
REMARK   62  A    between atoms: _148  and  _149
REMARK   63  A    between atoms: _148  and  _151
REMARK   64  A    between atoms: _151  and  _152
REMARK   65  A    between atoms: _152  and  _153
REMARK   66  A    between atoms: _156  and  _158
REMARK   67  A    between atoms: _158  and  _159
REMARK   68  A    between atoms: _158  and  _161
REMARK   69  A    between atoms: _164  and  _166
REMARK   70  A    between atoms: _166  and  _167
REMARK   71  A    between atoms: _166  and  _169
REMARK   72  A    between atoms: _169  and  _170
REMARK   73  A    between atoms: _172  and  _174
REMARK   74  A    between atoms: _174  and  _175
REMARK   75  A    between atoms: _174  and  _177
REMARK   76  A    between atoms: _177  and  _178
REMARK   77  A    between atoms: _178  and  _179
REMARK   78  A    between atoms: _184  and  _186
REMARK   79  A    between atoms: _186  and  _187
REMARK   80  A    between atoms: _186  and  _189
REMARK   81  A    between atoms: _191  and  _193
REMARK   82  A    between atoms: _193  and  _194
REMARK   83  A    between atoms: _193  and  _196
REMARK   84  A    between atoms: _198  and  _200
REMARK   85  A    between atoms: _200  and  _201
REMARK   86  A    between atoms: _200  and  _203
REMARK   87  A    between atoms: _203  and  _204
REMARK   88  A    between atoms: _207  and  _209
REMARK   89  A    between atoms: _209  and  _210
REMARK   90  A    between atoms: _209  and  _212
REMARK   91  A    between atoms: _212  and  _213
REMARK   92  A    between atoms: _216  and  _218
REMARK   93  A    between atoms: _218  and  _219
REMARK   94  A    between atoms: _218  and  _221
REMARK   95  A    between atoms: _221  and  _222
REMARK   96  A    between atoms: _222  and  _223
REMARK   97  A    between atoms: _223  and  _224
REMARK   98  A    between atoms: _224  and  _225
REMARK   99  A    between atoms: _229  and  _231
REMARK  100  A    between atoms: _231  and  _232
REMARK  101  A    between atoms: _231  and  _234
REMARK  102  A    between atoms: _234  and  _235
REMARK  103  A    between atoms: _240  and  _242
REMARK  104  A    between atoms: _242  and  _243
REMARK  105  A    between atoms: _242  and  _245
REMARK  106  A    between atoms: _245  and  _246
REMARK  107  A    between atoms: _251  and  _252
REMARK  108  A    between atoms: _254  and  _256
REMARK  109  A    between atoms: _256  and  _257
REMARK  110  A    between atoms: _256  and  _259
REMARK  111  A    between atoms: _262  and  _264
REMARK  112  A    between atoms: _264  and  _265
REMARK  113  A    between atoms: _264  and  _267
REMARK  114  A    between atoms: _267  and  _268
REMARK  115  A    between atoms: _268  and  _269
REMARK  116  A    between atoms: _269  and  _270
REMARK  117  A    between atoms: _270  and  _271
REMARK  118  A    between atoms: _275  and  _277
REMARK  119  A    between atoms: _277  and  _278
REMARK  120  A    between atoms: _277  and  _280
REMARK  121  A    between atoms: _280  and  _281
REMARK  122  A    between atoms: _284  and  _286
REMARK  123  A    between atoms: _286  and  _287
REMARK  124  A    between atoms: _286  and  _289
REMARK  125  A    between atoms: _289  and  _290
REMARK  126  A    between atoms: _290  and  _291
REMARK  127  A    between atoms: _291  and  _292
REMARK  128  A    between atoms: _292  and  _293
REMARK                            x       y       z     vdW  Elec       q    Type
REMARK                         _______ _______ _______ _____ _____    ______ ____
ROOT
ATOM      1  O   HOH     1      24.957  36.483  35.498  0.00  0.00    +0.000 OA
ENDROOT
TORSDOF 0
REMARK  Name = ../refined-set-2016/4g0p/4g0p_pocket.pdb
REMARK  128 active torsions:
REMARK  status: ('A' for Active; 'I' for Inactive)
REMARK    1  A    between atoms: _1  and  _3
REMARK    2  A    between atoms: _3  and  _4
REMARK    3  A    between atoms: _3  and  _6
REMARK    4  A    between atoms: _6  and  _7
REMARK    5  A    between atoms: _10  and  _12
REMARK    6  A    between atoms: _12  and  _13
REMARK    7  A    between atoms: _12  and  _15
REMARK    8  A    between atoms: _15  and  _16
REMARK    9  A    between atoms: _19  and  _21
REMARK   10  A    between atoms: _21  and  _22
REMARK   11  A    between atoms: _21  and  _24
REMARK   12  A    between atoms: _27  and  _29
REMARK   13  A    between atoms: _29  and  _30
REMARK   14  A    between atoms: _29  and  _32
REMARK   15  A    between atoms: _32  and  _33
REMARK   16  A    between atoms: _37  and  _38
REMARK   17  A    between atoms: _43  and  _45
REMARK   18  A    between atoms: _45  and  _46
REMARK   19  A    between atoms: _45  and  _48
REMARK   20  A    between atoms: _48  and  _49
REMARK   21  A    between atoms: _52  and  _54
REMARK   22  A    between atoms: _54  and  _55
REMARK   23  A    between atoms: _54  and  _57
REMARK   24  A    between atoms: _57  and  _58
REMARK   25  A    between atoms: _63  and  _65
REMARK   26  A    between atoms: _65  and  _66
REMARK   27  A    between atoms: _65  and  _68
REMARK   28  A    between atoms: _68  and  _69
REMARK   29  A    between atoms: _74  and  _76
REMARK   30  A    between atoms: _76  and  _77
REMARK   31  A    between atoms: _79  and  _81
REMARK   32  A    between atoms: _81  and  _82
REMARK   33  A    between atoms: _81  and  _84
REMARK   34  A    between atoms: _84  and  _85
REMARK   35  A    between atoms: _87  and  _89
REMARK   36  A    between atoms: _89  and  _90
REMARK   37  A    between atoms: _89  and  _92
REMARK   38  A    between atoms: _92  and  _93
REMARK   39  A    between atoms: _96  and  _98
REMARK   40  A    between atoms: _98  and  _99
REMARK   41  A    between atoms: _98  and  _101
REMARK   42  A    between atoms: _101  and  _102
REMARK   43  A    between atoms: _107  and  _108
REMARK   44  A    between atoms: _110  and  _112
REMARK   45  A    between atoms: _112  and  _113
REMARK   46  A    between atoms: _115  and  _117
REMARK   47  A    between atoms: _117  and  _118
REMARK   48  A    between atoms: _117  and  _120
REMARK   49  A    between atoms: _120  and  _121
REMARK   50  A    between atoms: _124  and  _126
REMARK   51  A    between atoms: _126  and  _127
REMARK   52  A    between atoms: _126  and  _129
REMARK   53  A    between atoms: _129  and  _130
REMARK   54  A    between atoms: _133  and  _135
REMARK   55  A    between atoms: _135  and  _136
REMARK   56  A    between atoms: _135  and  _138
REMARK   57  A    between atoms: _138  and  _139
REMARK   58  A    between atoms: _139  and  _140
REMARK   59  A    between atoms: _140  and  _141
REMARK   60  A    between atoms: _141  and  _142
REMARK   61  A    between atoms: _146  and  _148
REMARK   62  A    between atoms: _148  and  _149
REMARK   63  A    between atoms: _148  and  _151
REMARK   64  A    between atoms: _151  and  _152
REMARK   65  A    between atoms: _152  and  _153
REMARK   66  A    between atoms: _156  and  _158
REMARK   67  A    between atoms: _158  and  _159
REMARK   68  A    between atoms: _158  and  _161
REMARK   69  A    between atoms: _164  and  _166
REMARK   70  A    between atoms: _166  and  _167
REMARK   71  A    between atoms: _166  and  _169
REMARK   72  A    between atoms: _169  and  _170
REMARK   73  A    between atoms: _172  and  _174
REMARK   74  A    between atoms: _174  and  _175
REMARK   75  A    between atoms: _174  and  _177
REMARK   76  A    between atoms: _177  and  _178
REMARK   77  A    between atoms: _178  and  _179
REMARK   78  A    between atoms: _184  and  _186
REMARK   79  A    between atoms: _186  and  _187
REMARK   80  A    between atoms: _186  and  _189
REMARK   81  A    between atoms: _191  and  _193
REMARK   82  A    between atoms: _193  and  _194
REMARK   83  A    between atoms: _193  and  _196
REMARK   84  A    between atoms: _198  and  _200
REMARK   85  A    between atoms: _200  and  _201
REMARK   86  A    between atoms: _200  and  _203
REMARK   87  A    between atoms: _203  and  _204
REMARK   88  A    between atoms: _207  and  _209
REMARK   89  A    between atoms: _209  and  _210
REMARK   90  A    between atoms: _209  and  _212
REMARK   91  A    between atoms: _212  and  _213
REMARK   92  A    between atoms: _216  and  _218
REMARK   93  A    between atoms: _218  and  _219
REMARK   94  A    between atoms: _218  and  _221
REMARK   95  A    between atoms: _221  and  _222
REMARK   96  A    between atoms: _222  and  _223
REMARK   97  A    between atoms: _223  and  _224
REMARK   98  A    between atoms: _224  and  _225
REMARK   99  A    between atoms: _229  and  _231
REMARK  100  A    between atoms: _231  and  _232
REMARK  101  A    between atoms: _231  and  _234
REMARK  102  A    between atoms: _234  and  _235
REMARK  103  A    between atoms: _240  and  _242
REMARK  104  A    between atoms: _242  and  _243
REMARK  105  A    between atoms: _242  and  _245
REMARK  106  A    between atoms: _245  and  _246
REMARK  107  A    between atoms: _251  and  _252
REMARK  108  A    between atoms: _254  and  _256
REMARK  109  A    between atoms: _256  and  _257
REMARK  110  A    between atoms: _256  and  _259
REMARK  111  A    between atoms: _262  and  _264
REMARK  112  A    between atoms: _264  and  _265
REMARK  113  A    between atoms: _264  and  _267
REMARK  114  A    between atoms: _267  and  _268
REMARK  115  A    between atoms: _268  and  _269
REMARK  116  A    between atoms: _269  and  _270
REMARK  117  A    between atoms: _270  and  _271
REMARK  118  A    between atoms: _275  and  _277
REMARK  119  A    between atoms: _277  and  _278
REMARK  120  A    between atoms: _277  and  _280
REMARK  121  A    between atoms: _280  and  _281
REMARK  122  A    between atoms: _284  and  _286
REMARK  123  A    between atoms: _286  and  _287
REMARK  124  A    between atoms: _286  and  _289
REMARK  125  A    between atoms: _289  and  _290
REMARK  126  A    between atoms: _290  and  _291
REMARK  127  A    between atoms: _291  and  _292
REMARK  128  A    between atoms: _292  and  _293
REMARK                            x       y       z     vdW  Elec       q    Type
REMARK                         _______ _______ _______ _____ _____    ______ ____
ROOT
ATOM      1  O   HOH     1      20.168  39.622  34.222  0.00  0.00    +0.000 OA
ENDROOT
TORSDOF 0
REMARK  Name = ../refined-set-2016/4g0p/4g0p_pocket.pdb
REMARK  128 active torsions:
REMARK  status: ('A' for Active; 'I' for Inactive)
REMARK    1  A    between atoms: _1  and  _3
REMARK    2  A    between atoms: _3  and  _4
REMARK    3  A    between atoms: _3  and  _6
REMARK    4  A    between atoms: _6  and  _7
REMARK    5  A    between atoms: _10  and  _12
REMARK    6  A    between atoms: _12  and  _13
REMARK    7  A    between atoms: _12  and  _15
REMARK    8  A    between atoms: _15  and  _16
REMARK    9  A    between atoms: _19  and  _21
REMARK   10  A    between atoms: _21  and  _22
REMARK   11  A    between atoms: _21  and  _24
REMARK   12  A    between atoms: _27  and  _29
REMARK   13  A    between atoms: _29  and  _30
REMARK   14  A    between atoms: _29  and  _32
REMARK   15  A    between atoms: _32  and  _33
REMARK   16  A    between atoms: _37  and  _38
REMARK   17  A    between atoms: _43  and  _45
REMARK   18  A    between atoms: _45  and  _46
REMARK   19  A    between atoms: _45  and  _48
REMARK   20  A    between atoms: _48  and  _49
REMARK   21  A    between atoms: _52  and  _54
REMARK   22  A    between atoms: _54  and  _55
REMARK   23  A    between atoms: _54  and  _57
REMARK   24  A    between atoms: _57  and  _58
REMARK   25  A    between atoms: _63  and  _65
REMARK   26  A    between atoms: _65  and  _66
REMARK   27  A    between atoms: _65  and  _68
REMARK   28  A    between atoms: _68  and  _69
REMARK   29  A    between atoms: _74  and  _76
REMARK   30  A    between atoms: _76  and  _77
REMARK   31  A    between atoms: _79  and  _81
REMARK   32  A    between atoms: _81  and  _82
REMARK   33  A    between atoms: _81  and  _84
REMARK   34  A    between atoms: _84  and  _85
REMARK   35  A    between atoms: _87  and  _89
REMARK   36  A    between atoms: _89  and  _90
REMARK   37  A    between atoms: _89  and  _92
REMARK   38  A    between atoms: _92  and  _93
REMARK   39  A    between atoms: _96  and  _98
REMARK   40  A    between atoms: _98  and  _99
REMARK   41  A    between atoms: _98  and  _101
REMARK   42  A    between atoms: _101  and  _102
REMARK   43  A    between atoms: _107  and  _108
REMARK   44  A    between atoms: _110  and  _112
REMARK   45  A    between atoms: _112  and  _113
REMARK   46  A    between atoms: _115  and  _117
REMARK   47  A    between atoms: _117  and  _118
REMARK   48  A    between atoms: _117  and  _120
REMARK   49  A    between atoms: _120  and  _121
REMARK   50  A    between atoms: _124  and  _126
REMARK   51  A    between atoms: _126  and  _127
REMARK   52  A    between atoms: _126  and  _129
REMARK   53  A    between atoms: _129  and  _130
REMARK   54  A    between atoms: _133  and  _135
REMARK   55  A    between atoms: _135  and  _136
REMARK   56  A    between atoms: _135  and  _138
REMARK   57  A    between atoms: _138  and  _139
REMARK   58  A    between atoms: _139  and  _140
REMARK   59  A    between atoms: _140  and  _141
REMARK   60  A    between atoms: _141  and  _142
REMARK   61  A    between atoms: _146  and  _148
REMARK   62  A    between atoms: _148  and  _149
REMARK   63  A    between atoms: _148  and  _151
REMARK   64  A    between atoms: _151  and  _152
REMARK   65  A    between atoms: _152  and  _153
REMARK   66  A    between atoms: _156  and  _158
REMARK   67  A    between atoms: _158  and  _159
REMARK   68  A    between atoms: _158  and  _161
REMARK   69  A    between atoms: _164  and  _166
REMARK   70  A    between atoms: _166  and  _167
REMARK   71  A    between atoms: _166  and  _169
REMARK   72  A    between atoms: _169  and  _170
REMARK   73  A    between atoms: _172  and  _174
REMARK   74  A    between atoms: _174  and  _175
REMARK   75  A    between atoms: _174  and  _177
REMARK   76  A    between atoms: _177  and  _178
REMARK   77  A    between atoms: _178  and  _179
REMARK   78  A    between atoms: _184  and  _186
REMARK   79  A    between atoms: _186  and  _187
REMARK   80  A    between atoms: _186  and  _189
REMARK   81  A    between atoms: _191  and  _193
REMARK   82  A    between atoms: _193  and  _194
REMARK   83  A    between atoms: _193  and  _196
REMARK   84  A    between atoms: _198  and  _200
REMARK   85  A    between atoms: _200  and  _201
REMARK   86  A    between atoms: _200  and  _203
REMARK   87  A    between atoms: _203  and  _204
REMARK   88  A    between atoms: _207  and  _209
REMARK   89  A    between atoms: _209  and  _210
REMARK   90  A    between atoms: _209  and  _212
REMARK   91  A    between atoms: _212  and  _213
REMARK   92  A    between atoms: _216  and  _218
REMARK   93  A    between atoms: _218  and  _219
REMARK   94  A    between atoms: _218  and  _221
REMARK   95  A    between atoms: _221  and  _222
REMARK   96  A    between atoms: _222  and  _223
REMARK   97  A    between atoms: _223  and  _224
REMARK   98  A    between atoms: _224  and  _225
REMARK   99  A    between atoms: _229  and  _231
REMARK  100  A    between atoms: _231  and  _232
REMARK  101  A    between atoms: _231  and  _234
REMARK  102  A    between atoms: _234  and  _235
REMARK  103  A    between atoms: _240  and  _242
REMARK  104  A    between atoms: _242  and  _243
REMARK  105  A    between atoms: _242  and  _245
REMARK  106  A    between atoms: _245  and  _246
REMARK  107  A    between atoms: _251  and  _252
REMARK  108  A    between atoms: _254  and  _256
REMARK  109  A    between atoms: _256  and  _257
REMARK  110  A    between atoms: _256  and  _259
REMARK  111  A    between atoms: _262  and  _264
REMARK  112  A    between atoms: _264  and  _265
REMARK  113  A    between atoms: _264  and  _267
REMARK  114  A    between atoms: _267  and  _268
REMARK  115  A    between atoms: _268  and  _269
REMARK  116  A    between atoms: _269  and  _270
REMARK  117  A    between atoms: _270  and  _271
REMARK  118  A    between atoms: _275  and  _277
REMARK  119  A    between atoms: _277  and  _278
REMARK  120  A    between atoms: _277  and  _280
REMARK  121  A    between atoms: _280  and  _281
REMARK  122  A    between atoms: _284  and  _286
REMARK  123  A    between atoms: _286  and  _287
REMARK  124  A    between atoms: _286  and  _289
REMARK  125  A    between atoms: _289  and  _290
REMARK  126  A    between atoms: _290  and  _291
REMARK  127  A    between atoms: _291  and  _292
REMARK  128  A    between atoms: _292  and  _293
REMARK                            x       y       z     vdW  Elec       q    Type
REMARK                         _______ _______ _______ _____ _____    ______ ____
ROOT
ATOM      1  O   HOH     1      20.330  36.329  33.380  0.00  0.00    +0.000 OA
ENDROOT
TORSDOF 0
REMARK  Name = ../refined-set-2016/4g0p/4g0p_pocket.pdb
REMARK  128 active torsions:
REMARK  status: ('A' for Active; 'I' for Inactive)
REMARK    1  A    between atoms: _1  and  _3
REMARK    2  A    between atoms: _3  and  _4
REMARK    3  A    between atoms: _3  and  _6
REMARK    4  A    between atoms: _6  and  _7
REMARK    5  A    between atoms: _10  and  _12
REMARK    6  A    between atoms: _12  and  _13
REMARK    7  A    between atoms: _12  and  _15
REMARK    8  A    between atoms: _15  and  _16
REMARK    9  A    between atoms: _19  and  _21
REMARK   10  A    between atoms: _21  and  _22
REMARK   11  A    between atoms: _21  and  _24
REMARK   12  A    between atoms: _27  and  _29
REMARK   13  A    between atoms: _29  and  _30
REMARK   14  A    between atoms: _29  and  _32
REMARK   15  A    between atoms: _32  and  _33
REMARK   16  A    between atoms: _37  and  _38
REMARK   17  A    between atoms: _43  and  _45
REMARK   18  A    between atoms: _45  and  _46
REMARK   19  A    between atoms: _45  and  _48
REMARK   20  A    between atoms: _48  and  _49
REMARK   21  A    between atoms: _52  and  _54
REMARK   22  A    between atoms: _54  and  _55
REMARK   23  A    between atoms: _54  and  _57
REMARK   24  A    between atoms: _57  and  _58
REMARK   25  A    between atoms: _63  and  _65
REMARK   26  A    between atoms: _65  and  _66
REMARK   27  A    between atoms: _65  and  _68
REMARK   28  A    between atoms: _68  and  _69
REMARK   29  A    between atoms: _74  and  _76
REMARK   30  A    between atoms: _76  and  _77
REMARK   31  A    between atoms: _79  and  _81
REMARK   32  A    between atoms: _81  and  _82
REMARK   33  A    between atoms: _81  and  _84
REMARK   34  A    between atoms: _84  and  _85
REMARK   35  A    between atoms: _87  and  _89
REMARK   36  A    between atoms: _89  and  _90
REMARK   37  A    between atoms: _89  and  _92
REMARK   38  A    between atoms: _92  and  _93
REMARK   39  A    between atoms: _96  and  _98
REMARK   40  A    between atoms: _98  and  _99
REMARK   41  A    between atoms: _98  and  _101
REMARK   42  A    between atoms: _101  and  _102
REMARK   43  A    between atoms: _107  and  _108
REMARK   44  A    between atoms: _110  and  _112
REMARK   45  A    between atoms: _112  and  _113
REMARK   46  A    between atoms: _115  and  _117
REMARK   47  A    between atoms: _117  and  _118
REMARK   48  A    between atoms: _117  and  _120
REMARK   49  A    between atoms: _120  and  _121
REMARK   50  A    between atoms: _124  and  _126
REMARK   51  A    between atoms: _126  and  _127
REMARK   52  A    between atoms: _126  and  _129
REMARK   53  A    between atoms: _129  and  _130
REMARK   54  A    between atoms: _133  and  _135
REMARK   55  A    between atoms: _135  and  _136
REMARK   56  A    between atoms: _135  and  _138
REMARK   57  A    between atoms: _138  and  _139
REMARK   58  A    between atoms: _139  and  _140
REMARK   59  A    between atoms: _140  and  _141
REMARK   60  A    between atoms: _141  and  _142
REMARK   61  A    between atoms: _146  and  _148
REMARK   62  A    between atoms: _148  and  _149
REMARK   63  A    between atoms: _148  and  _151
REMARK   64  A    between atoms: _151  and  _152
REMARK   65  A    between atoms: _152  and  _153
REMARK   66  A    between atoms: _156  and  _158
REMARK   67  A    between atoms: _158  and  _159
REMARK   68  A    between atoms: _158  and  _161
REMARK   69  A    between atoms: _164  and  _166
REMARK   70  A    between atoms: _166  and  _167
REMARK   71  A    between atoms: _166  and  _169
REMARK   72  A    between atoms: _169  and  _170
REMARK   73  A    between atoms: _172  and  _174
REMARK   74  A    between atoms: _174  and  _175
REMARK   75  A    between atoms: _174  and  _177
REMARK   76  A    between atoms: _177  and  _178
REMARK   77  A    between atoms: _178  and  _179
REMARK   78  A    between atoms: _184  and  _186
REMARK   79  A    between atoms: _186  and  _187
REMARK   80  A    between atoms: _186  and  _189
REMARK   81  A    between atoms: _191  and  _193
REMARK   82  A    between atoms: _193  and  _194
REMARK   83  A    between atoms: _193  and  _196
REMARK   84  A    between atoms: _198  and  _200
REMARK   85  A    between atoms: _200  and  _201
REMARK   86  A    between atoms: _200  and  _203
REMARK   87  A    between atoms: _203  and  _204
REMARK   88  A    between atoms: _207  and  _209
REMARK   89  A    between atoms: _209  and  _210
REMARK   90  A    between atoms: _209  and  _212
REMARK   91  A    between atoms: _212  and  _213
REMARK   92  A    between atoms: _216  and  _218
REMARK   93  A    between atoms: _218  and  _219
REMARK   94  A    between atoms: _218  and  _221
REMARK   95  A    between atoms: _221  and  _222
REMARK   96  A    between atoms: _222  and  _223
REMARK   97  A    between atoms: _223  and  _224
REMARK   98  A    between atoms: _224  and  _225
REMARK   99  A    between atoms: _229  and  _231
REMARK  100  A    between atoms: _231  and  _232
REMARK  101  A    between atoms: _231  and  _234
REMARK  102  A    between atoms: _234  and  _235
REMARK  103  A    between atoms: _240  and  _242
REMARK  104  A    between atoms: _242  and  _243
REMARK  105  A    between atoms: _242  and  _245
REMARK  106  A    between atoms: _245  and  _246
REMARK  107  A    between atoms: _251  and  _252
REMARK  108  A    between atoms: _254  and  _256
REMARK  109  A    between atoms: _256  and  _257
REMARK  110  A    between atoms: _256  and  _259
REMARK  111  A    between atoms: _262  and  _264
REMARK  112  A    between atoms: _264  and  _265
REMARK  113  A    between atoms: _264  and  _267
REMARK  114  A    between atoms: _267  and  _268
REMARK  115  A    between atoms: _268  and  _269
REMARK  116  A    between atoms: _269  and  _270
REMARK  117  A    between atoms: _270  and  _271
REMARK  118  A    between atoms: _275  and  _277
REMARK  119  A    between atoms: _277  and  _278
REMARK  120  A    between atoms: _277  and  _280
REMARK  121  A    between atoms: _280  and  _281
REMARK  122  A    between atoms: _284  and  _286
REMARK  123  A    between atoms: _286  and  _287
REMARK  124  A    between atoms: _286  and  _289
REMARK  125  A    between atoms: _289  and  _290
REMARK  126  A    between atoms: _290  and  _291
REMARK  127  A    between atoms: _291  and  _292
REMARK  128  A    between atoms: _292  and  _293
REMARK                            x       y       z     vdW  Elec       q    Type
REMARK                         _______ _______ _______ _____ _____    ______ ____
ROOT
ATOM      1  O   HOH     1      22.091  36.247  35.259  0.00  0.00    +0.000 OA
ENDROOT
TORSDOF 0
REMARK  Name = ../refined-set-2016/4g0p/4g0p_pocket.pdb
REMARK  128 active torsions:
REMARK  status: ('A' for Active; 'I' for Inactive)
REMARK    1  A    between atoms: _1  and  _3
REMARK    2  A    between atoms: _3  and  _4
REMARK    3  A    between atoms: _3  and  _6
REMARK    4  A    between atoms: _6  and  _7
REMARK    5  A    between atoms: _10  and  _12
REMARK    6  A    between atoms: _12  and  _13
REMARK    7  A    between atoms: _12  and  _15
REMARK    8  A    between atoms: _15  and  _16
REMARK    9  A    between atoms: _19  and  _21
REMARK   10  A    between atoms: _21  and  _22
REMARK   11  A    between atoms: _21  and  _24
REMARK   12  A    between atoms: _27  and  _29
REMARK   13  A    between atoms: _29  and  _30
REMARK   14  A    between atoms: _29  and  _32
REMARK   15  A    between atoms: _32  and  _33
REMARK   16  A    between atoms: _37  and  _38
REMARK   17  A    between atoms: _43  and  _45
REMARK   18  A    between atoms: _45  and  _46
REMARK   19  A    between atoms: _45  and  _48
REMARK   20  A    between atoms: _48  and  _49
REMARK   21  A    between atoms: _52  and  _54
REMARK   22  A    between atoms: _54  and  _55
REMARK   23  A    between atoms: _54  and  _57
REMARK   24  A    between atoms: _57  and  _58
REMARK   25  A    between atoms: _63  and  _65
REMARK   26  A    between atoms: _65  and  _66
REMARK   27  A    between atoms: _65  and  _68
REMARK   28  A    between atoms: _68  and  _69
REMARK   29  A    between atoms: _74  and  _76
REMARK   30  A    between atoms: _76  and  _77
REMARK   31  A    between atoms: _79  and  _81
REMARK   32  A    between atoms: _81  and  _82
REMARK   33  A    between atoms: _81  and  _84
REMARK   34  A    between atoms: _84  and  _85
REMARK   35  A    between atoms: _87  and  _89
REMARK   36  A    between atoms: _89  and  _90
REMARK   37  A    between atoms: _89  and  _92
REMARK   38  A    between atoms: _92  and  _93
REMARK   39  A    between atoms: _96  and  _98
REMARK   40  A    between atoms: _98  and  _99
REMARK   41  A    between atoms: _98  and  _101
REMARK   42  A    between atoms: _101  and  _102
REMARK   43  A    between atoms: _107  and  _108
REMARK   44  A    between atoms: _110  and  _112
REMARK   45  A    between atoms: _112  and  _113
REMARK   46  A    between atoms: _115  and  _117
REMARK   47  A    between atoms: _117  and  _118
REMARK   48  A    between atoms: _117  and  _120
REMARK   49  A    between atoms: _120  and  _121
REMARK   50  A    between atoms: _124  and  _126
REMARK   51  A    between atoms: _126  and  _127
REMARK   52  A    between atoms: _126  and  _129
REMARK   53  A    between atoms: _129  and  _130
REMARK   54  A    between atoms: _133  and  _135
REMARK   55  A    between atoms: _135  and  _136
REMARK   56  A    between atoms: _135  and  _138
REMARK   57  A    between atoms: _138  and  _139
REMARK   58  A    between atoms: _139  and  _140
REMARK   59  A    between atoms: _140  and  _141
REMARK   60  A    between atoms: _141  and  _142
REMARK   61  A    between atoms: _146  and  _148
REMARK   62  A    between atoms: _148  and  _149
REMARK   63  A    between atoms: _148  and  _151
REMARK   64  A    between atoms: _151  and  _152
REMARK   65  A    between atoms: _152  and  _153
REMARK   66  A    between atoms: _156  and  _158
REMARK   67  A    between atoms: _158  and  _159
REMARK   68  A    between atoms: _158  and  _161
REMARK   69  A    between atoms: _164  and  _166
REMARK   70  A    between atoms: _166  and  _167
REMARK   71  A    between atoms: _166  and  _169
REMARK   72  A    between atoms: _169  and  _170
REMARK   73  A    between atoms: _172  and  _174
REMARK   74  A    between atoms: _174  and  _175
REMARK   75  A    between atoms: _174  and  _177
REMARK   76  A    between atoms: _177  and  _178
REMARK   77  A    between atoms: _178  and  _179
REMARK   78  A    between atoms: _184  and  _186
REMARK   79  A    between atoms: _186  and  _187
REMARK   80  A    between atoms: _186  and  _189
REMARK   81  A    between atoms: _191  and  _193
REMARK   82  A    between atoms: _193  and  _194
REMARK   83  A    between atoms: _193  and  _196
REMARK   84  A    between atoms: _198  and  _200
REMARK   85  A    between atoms: _200  and  _201
REMARK   86  A    between atoms: _200  and  _203
REMARK   87  A    between atoms: _203  and  _204
REMARK   88  A    between atoms: _207  and  _209
REMARK   89  A    between atoms: _209  and  _210
REMARK   90  A    between atoms: _209  and  _212
REMARK   91  A    between atoms: _212  and  _213
REMARK   92  A    between atoms: _216  and  _218
REMARK   93  A    between atoms: _218  and  _219
REMARK   94  A    between atoms: _218  and  _221
REMARK   95  A    between atoms: _221  and  _222
REMARK   96  A    between atoms: _222  and  _223
REMARK   97  A    between atoms: _223  and  _224
REMARK   98  A    between atoms: _224  and  _225
REMARK   99  A    between atoms: _229  and  _231
REMARK  100  A    between atoms: _231  and  _232
REMARK  101  A    between atoms: _231  and  _234
REMARK  102  A    between atoms: _234  and  _235
REMARK  103  A    between atoms: _240  and  _242
REMARK  104  A    between atoms: _242  and  _243
REMARK  105  A    between atoms: _242  and  _245
REMARK  106  A    between atoms: _245  and  _246
REMARK  107  A    between atoms: _251  and  _252
REMARK  108  A    between atoms: _254  and  _256
REMARK  109  A    between atoms: _256  and  _257
REMARK  110  A    between atoms: _256  and  _259
REMARK  111  A    between atoms: _262  and  _264
REMARK  112  A    between atoms: _264  and  _265
REMARK  113  A    between atoms: _264  and  _267
REMARK  114  A    between atoms: _267  and  _268
REMARK  115  A    between atoms: _268  and  _269
REMARK  116  A    between atoms: _269  and  _270
REMARK  117  A    between atoms: _270  and  _271
REMARK  118  A    between atoms: _275  and  _277
REMARK  119  A    between atoms: _277  and  _278
REMARK  120  A    between atoms: _277  and  _280
REMARK  121  A    between atoms: _280  and  _281
REMARK  122  A    between atoms: _284  and  _286
REMARK  123  A    between atoms: _286  and  _287
REMARK  124  A    between atoms: _286  and  _289
REMARK  125  A    between atoms: _289  and  _290
REMARK  126  A    between atoms: _290  and  _291
REMARK  127  A    between atoms: _291  and  _292
REMARK  128  A    between atoms: _292  and  _293
REMARK                            x       y       z     vdW  Elec       q    Type
REMARK                         _______ _______ _______ _____ _____    ______ ____
ROOT
ATOM      1  O   HOH     1      19.874  37.883  36.263  0.00  0.00    +0.000 OA
ENDROOT
TORSDOF 0
REMARK  Name = ../refined-set-2016/4g0p/4g0p_pocket.pdb
REMARK  128 active torsions:
REMARK  status: ('A' for Active; 'I' for Inactive)
REMARK    1  A    between atoms: _1  and  _3
REMARK    2  A    between atoms: _3  and  _4
REMARK    3  A    between atoms: _3  and  _6
REMARK    4  A    between atoms: _6  and  _7
REMARK    5  A    between atoms: _10  and  _12
REMARK    6  A    between atoms: _12  and  _13
REMARK    7  A    between atoms: _12  and  _15
REMARK    8  A    between atoms: _15  and  _16
REMARK    9  A    between atoms: _19  and  _21
REMARK   10  A    between atoms: _21  and  _22
REMARK   11  A    between atoms: _21  and  _24
REMARK   12  A    between atoms: _27  and  _29
REMARK   13  A    between atoms: _29  and  _30
REMARK   14  A    between atoms: _29  and  _32
REMARK   15  A    between atoms: _32  and  _33
REMARK   16  A    between atoms: _37  and  _38
REMARK   17  A    between atoms: _43  and  _45
REMARK   18  A    between atoms: _45  and  _46
REMARK   19  A    between atoms: _45  and  _48
REMARK   20  A    between atoms: _48  and  _49
REMARK   21  A    between atoms: _52  and  _54
REMARK   22  A    between atoms: _54  and  _55
REMARK   23  A    between atoms: _54  and  _57
REMARK   24  A    between atoms: _57  and  _58
REMARK   25  A    between atoms: _63  and  _65
REMARK   26  A    between atoms: _65  and  _66
REMARK   27  A    between atoms: _65  and  _68
REMARK   28  A    between atoms: _68  and  _69
REMARK   29  A    between atoms: _74  and  _76
REMARK   30  A    between atoms: _76  and  _77
REMARK   31  A    between atoms: _79  and  _81
REMARK   32  A    between atoms: _81  and  _82
REMARK   33  A    between atoms: _81  and  _84
REMARK   34  A    between atoms: _84  and  _85
REMARK   35  A    between atoms: _87  and  _89
REMARK   36  A    between atoms: _89  and  _90
REMARK   37  A    between atoms: _89  and  _92
REMARK   38  A    between atoms: _92  and  _93
REMARK   39  A    between atoms: _96  and  _98
REMARK   40  A    between atoms: _98  and  _99
REMARK   41  A    between atoms: _98  and  _101
REMARK   42  A    between atoms: _101  and  _102
REMARK   43  A    between atoms: _107  and  _108
REMARK   44  A    between atoms: _110  and  _112
REMARK   45  A    between atoms: _112  and  _113
REMARK   46  A    between atoms: _115  and  _117
REMARK   47  A    between atoms: _117  and  _118
REMARK   48  A    between atoms: _117  and  _120
REMARK   49  A    between atoms: _120  and  _121
REMARK   50  A    between atoms: _124  and  _126
REMARK   51  A    between atoms: _126  and  _127
REMARK   52  A    between atoms: _126  and  _129
REMARK   53  A    between atoms: _129  and  _130
REMARK   54  A    between atoms: _133  and  _135
REMARK   55  A    between atoms: _135  and  _136
REMARK   56  A    between atoms: _135  and  _138
REMARK   57  A    between atoms: _138  and  _139
REMARK   58  A    between atoms: _139  and  _140
REMARK   59  A    between atoms: _140  and  _141
REMARK   60  A    between atoms: _141  and  _142
REMARK   61  A    between atoms: _146  and  _148
REMARK   62  A    between atoms: _148  and  _149
REMARK   63  A    between atoms: _148  and  _151
REMARK   64  A    between atoms: _151  and  _152
REMARK   65  A    between atoms: _152  and  _153
REMARK   66  A    between atoms: _156  and  _158
REMARK   67  A    between atoms: _158  and  _159
REMARK   68  A    between atoms: _158  and  _161
REMARK   69  A    between atoms: _164  and  _166
REMARK   70  A    between atoms: _166  and  _167
REMARK   71  A    between atoms: _166  and  _169
REMARK   72  A    between atoms: _169  and  _170
REMARK   73  A    between atoms: _172  and  _174
REMARK   74  A    between atoms: _174  and  _175
REMARK   75  A    between atoms: _174  and  _177
REMARK   76  A    between atoms: _177  and  _178
REMARK   77  A    between atoms: _178  and  _179
REMARK   78  A    between atoms: _184  and  _186
REMARK   79  A    between atoms: _186  and  _187
REMARK   80  A    between atoms: _186  and  _189
REMARK   81  A    between atoms: _191  and  _193
REMARK   82  A    between atoms: _193  and  _194
REMARK   83  A    between atoms: _193  and  _196
REMARK   84  A    between atoms: _198  and  _200
REMARK   85  A    between atoms: _200  and  _201
REMARK   86  A    between atoms: _200  and  _203
REMARK   87  A    between atoms: _203  and  _204
REMARK   88  A    between atoms: _207  and  _209
REMARK   89  A    between atoms: _209  and  _210
REMARK   90  A    between atoms: _209  and  _212
REMARK   91  A    between atoms: _212  and  _213
REMARK   92  A    between atoms: _216  and  _218
REMARK   93  A    between atoms: _218  and  _219
REMARK   94  A    between atoms: _218  and  _221
REMARK   95  A    between atoms: _221  and  _222
REMARK   96  A    between atoms: _222  and  _223
REMARK   97  A    between atoms: _223  and  _224
REMARK   98  A    between atoms: _224  and  _225
REMARK   99  A    between atoms: _229  and  _231
REMARK  100  A    between atoms: _231  and  _232
REMARK  101  A    between atoms: _231  and  _234
REMARK  102  A    between atoms: _234  and  _235
REMARK  103  A    between atoms: _240  and  _242
REMARK  104  A    between atoms: _242  and  _243
REMARK  105  A    between atoms: _242  and  _245
REMARK  106  A    between atoms: _245  and  _246
REMARK  107  A    between atoms: _251  and  _252
REMARK  108  A    between atoms: _254  and  _256
REMARK  109  A    between atoms: _256  and  _257
REMARK  110  A    between atoms: _256  and  _259
REMARK  111  A    between atoms: _262  and  _264
REMARK  112  A    between atoms: _264  and  _265
REMARK  113  A    between atoms: _264  and  _267
REMARK  114  A    between atoms: _267  and  _268
REMARK  115  A    between atoms: _268  and  _269
REMARK  116  A    between atoms: _269  and  _270
REMARK  117  A    between atoms: _270  and  _271
REMARK  118  A    between atoms: _275  and  _277
REMARK  119  A    between atoms: _277  and  _278
REMARK  120  A    between atoms: _277  and  _280
REMARK  121  A    between atoms: _280  and  _281
REMARK  122  A    between atoms: _284  and  _286
REMARK  123  A    between atoms: _286  and  _287
REMARK  124  A    between atoms: _286  and  _289
REMARK  125  A    between atoms: _289  and  _290
REMARK  126  A    between atoms: _290  and  _291
REMARK  127  A    between atoms: _291  and  _292
REMARK  128  A    between atoms: _292  and  _293
REMARK                            x       y       z     vdW  Elec       q    Type
REMARK                         _______ _______ _______ _____ _____    ______ ____
ROOT
ATOM      1  O   HOH     1      29.720  33.220  35.963  0.00  0.00    +0.000 OA
ENDROOT
TORSDOF 0
REMARK  Name = ../refined-set-2016/4g0p/4g0p_pocket.pdb
REMARK  128 active torsions:
REMARK  status: ('A' for Active; 'I' for Inactive)
REMARK    1  A    between atoms: _1  and  _3
REMARK    2  A    between atoms: _3  and  _4
REMARK    3  A    between atoms: _3  and  _6
REMARK    4  A    between atoms: _6  and  _7
REMARK    5  A    between atoms: _10  and  _12
REMARK    6  A    between atoms: _12  and  _13
REMARK    7  A    between atoms: _12  and  _15
REMARK    8  A    between atoms: _15  and  _16
REMARK    9  A    between atoms: _19  and  _21
REMARK   10  A    between atoms: _21  and  _22
REMARK   11  A    between atoms: _21  and  _24
REMARK   12  A    between atoms: _27  and  _29
REMARK   13  A    between atoms: _29  and  _30
REMARK   14  A    between atoms: _29  and  _32
REMARK   15  A    between atoms: _32  and  _33
REMARK   16  A    between atoms: _37  and  _38
REMARK   17  A    between atoms: _43  and  _45
REMARK   18  A    between atoms: _45  and  _46
REMARK   19  A    between atoms: _45  and  _48
REMARK   20  A    between atoms: _48  and  _49
REMARK   21  A    between atoms: _52  and  _54
REMARK   22  A    between atoms: _54  and  _55
REMARK   23  A    between atoms: _54  and  _57
REMARK   24  A    between atoms: _57  and  _58
REMARK   25  A    between atoms: _63  and  _65
REMARK   26  A    between atoms: _65  and  _66
REMARK   27  A    between atoms: _65  and  _68
REMARK   28  A    between atoms: _68  and  _69
REMARK   29  A    between atoms: _74  and  _76
REMARK   30  A    between atoms: _76  and  _77
REMARK   31  A    between atoms: _79  and  _81
REMARK   32  A    between atoms: _81  and  _82
REMARK   33  A    between atoms: _81  and  _84
REMARK   34  A    between atoms: _84  and  _85
REMARK   35  A    between atoms: _87  and  _89
REMARK   36  A    between atoms: _89  and  _90
REMARK   37  A    between atoms: _89  and  _92
REMARK   38  A    between atoms: _92  and  _93
REMARK   39  A    between atoms: _96  and  _98
REMARK   40  A    between atoms: _98  and  _99
REMARK   41  A    between atoms: _98  and  _101
REMARK   42  A    between atoms: _101  and  _102
REMARK   43  A    between atoms: _107  and  _108
REMARK   44  A    between atoms: _110  and  _112
REMARK   45  A    between atoms: _112  and  _113
REMARK   46  A    between atoms: _115  and  _117
REMARK   47  A    between atoms: _117  and  _118
REMARK   48  A    between atoms: _117  and  _120
REMARK   49  A    between atoms: _120  and  _121
REMARK   50  A    between atoms: _124  and  _126
REMARK   51  A    between atoms: _126  and  _127
REMARK   52  A    between atoms: _126  and  _129
REMARK   53  A    between atoms: _129  and  _130
REMARK   54  A    between atoms: _133  and  _135
REMARK   55  A    between atoms: _135  and  _136
REMARK   56  A    between atoms: _135  and  _138
REMARK   57  A    between atoms: _138  and  _139
REMARK   58  A    between atoms: _139  and  _140
REMARK   59  A    between atoms: _140  and  _141
REMARK   60  A    between atoms: _141  and  _142
REMARK   61  A    between atoms: _146  and  _148
REMARK   62  A    between atoms: _148  and  _149
REMARK   63  A    between atoms: _148  and  _151
REMARK   64  A    between atoms: _151  and  _152
REMARK   65  A    between atoms: _152  and  _153
REMARK   66  A    between atoms: _156  and  _158
REMARK   67  A    between atoms: _158  and  _159
REMARK   68  A    between atoms: _158  and  _161
REMARK   69  A    between atoms: _164  and  _166
REMARK   70  A    between atoms: _166  and  _167
REMARK   71  A    between atoms: _166  and  _169
REMARK   72  A    between atoms: _169  and  _170
REMARK   73  A    between atoms: _172  and  _174
REMARK   74  A    between atoms: _174  and  _175
REMARK   75  A    between atoms: _174  and  _177
REMARK   76  A    between atoms: _177  and  _178
REMARK   77  A    between atoms: _178  and  _179
REMARK   78  A    between atoms: _184  and  _186
REMARK   79  A    between atoms: _186  and  _187
REMARK   80  A    between atoms: _186  and  _189
REMARK   81  A    between atoms: _191  and  _193
REMARK   82  A    between atoms: _193  and  _194
REMARK   83  A    between atoms: _193  and  _196
REMARK   84  A    between atoms: _198  and  _200
REMARK   85  A    between atoms: _200  and  _201
REMARK   86  A    between atoms: _200  and  _203
REMARK   87  A    between atoms: _203  and  _204
REMARK   88  A    between atoms: _207  and  _209
REMARK   89  A    between atoms: _209  and  _210
REMARK   90  A    between atoms: _209  and  _212
REMARK   91  A    between atoms: _212  and  _213
REMARK   92  A    between atoms: _216  and  _218
REMARK   93  A    between atoms: _218  and  _219
REMARK   94  A    between atoms: _218  and  _221
REMARK   95  A    between atoms: _221  and  _222
REMARK   96  A    between atoms: _222  and  _223
REMARK   97  A    between atoms: _223  and  _224
REMARK   98  A    between atoms: _224  and  _225
REMARK   99  A    between atoms: _229  and  _231
REMARK  100  A    between atoms: _231  and  _232
REMARK  101  A    between atoms: _231  and  _234
REMARK  102  A    between atoms: _234  and  _235
REMARK  103  A    between atoms: _240  and  _242
REMARK  104  A    between atoms: _242  and  _243
REMARK  105  A    between atoms: _242  and  _245
REMARK  106  A    between atoms: _245  and  _246
REMARK  107  A    between atoms: _251  and  _252
REMARK  108  A    between atoms: _254  and  _256
REMARK  109  A    between atoms: _256  and  _257
REMARK  110  A    between atoms: _256  and  _259
REMARK  111  A    between atoms: _262  and  _264
REMARK  112  A    between atoms: _264  and  _265
REMARK  113  A    between atoms: _264  and  _267
REMARK  114  A    between atoms: _267  and  _268
REMARK  115  A    between atoms: _268  and  _269
REMARK  116  A    between atoms: _269  and  _270
REMARK  117  A    between atoms: _270  and  _271
REMARK  118  A    between atoms: _275  and  _277
REMARK  119  A    between atoms: _277  and  _278
REMARK  120  A    between atoms: _277  and  _280
REMARK  121  A    between atoms: _280  and  _281
REMARK  122  A    between atoms: _284  and  _286
REMARK  123  A    between atoms: _286  and  _287
REMARK  124  A    between atoms: _286  and  _289
REMARK  125  A    between atoms: _289  and  _290
REMARK  126  A    between atoms: _290  and  _291
REMARK  127  A    between atoms: _291  and  _292
REMARK  128  A    between atoms: _292  and  _293
REMARK                            x       y       z     vdW  Elec       q    Type
REMARK                         _______ _______ _______ _____ _____    ______ ____
ROOT
ATOM      1  O   HOH     1      31.427  27.013  37.964  0.00  0.00    +0.000 OA
ENDROOT
TORSDOF 0
REMARK  Name = ../refined-set-2016/4g0p/4g0p_pocket.pdb
REMARK  128 active torsions:
REMARK  status: ('A' for Active; 'I' for Inactive)
REMARK    1  A    between atoms: _1  and  _3
REMARK    2  A    between atoms: _3  and  _4
REMARK    3  A    between atoms: _3  and  _6
REMARK    4  A    between atoms: _6  and  _7
REMARK    5  A    between atoms: _10  and  _12
REMARK    6  A    between atoms: _12  and  _13
REMARK    7  A    between atoms: _12  and  _15
REMARK    8  A    between atoms: _15  and  _16
REMARK    9  A    between atoms: _19  and  _21
REMARK   10  A    between atoms: _21  and  _22
REMARK   11  A    between atoms: _21  and  _24
REMARK   12  A    between atoms: _27  and  _29
REMARK   13  A    between atoms: _29  and  _30
REMARK   14  A    between atoms: _29  and  _32
REMARK   15  A    between atoms: _32  and  _33
REMARK   16  A    between atoms: _37  and  _38
REMARK   17  A    between atoms: _43  and  _45
REMARK   18  A    between atoms: _45  and  _46
REMARK   19  A    between atoms: _45  and  _48
REMARK   20  A    between atoms: _48  and  _49
REMARK   21  A    between atoms: _52  and  _54
REMARK   22  A    between atoms: _54  and  _55
REMARK   23  A    between atoms: _54  and  _57
REMARK   24  A    between atoms: _57  and  _58
REMARK   25  A    between atoms: _63  and  _65
REMARK   26  A    between atoms: _65  and  _66
REMARK   27  A    between atoms: _65  and  _68
REMARK   28  A    between atoms: _68  and  _69
REMARK   29  A    between atoms: _74  and  _76
REMARK   30  A    between atoms: _76  and  _77
REMARK   31  A    between atoms: _79  and  _81
REMARK   32  A    between atoms: _81  and  _82
REMARK   33  A    between atoms: _81  and  _84
REMARK   34  A    between atoms: _84  and  _85
REMARK   35  A    between atoms: _87  and  _89
REMARK   36  A    between atoms: _89  and  _90
REMARK   37  A    between atoms: _89  and  _92
REMARK   38  A    between atoms: _92  and  _93
REMARK   39  A    between atoms: _96  and  _98
REMARK   40  A    between atoms: _98  and  _99
REMARK   41  A    between atoms: _98  and  _101
REMARK   42  A    between atoms: _101  and  _102
REMARK   43  A    between atoms: _107  and  _108
REMARK   44  A    between atoms: _110  and  _112
REMARK   45  A    between atoms: _112  and  _113
REMARK   46  A    between atoms: _115  and  _117
REMARK   47  A    between atoms: _117  and  _118
REMARK   48  A    between atoms: _117  and  _120
REMARK   49  A    between atoms: _120  and  _121
REMARK   50  A    between atoms: _124  and  _126
REMARK   51  A    between atoms: _126  and  _127
REMARK   52  A    between atoms: _126  and  _129
REMARK   53  A    between atoms: _129  and  _130
REMARK   54  A    between atoms: _133  and  _135
REMARK   55  A    between atoms: _135  and  _136
REMARK   56  A    between atoms: _135  and  _138
REMARK   57  A    between atoms: _138  and  _139
REMARK   58  A    between atoms: _139  and  _140
REMARK   59  A    between atoms: _140  and  _141
REMARK   60  A    between atoms: _141  and  _142
REMARK   61  A    between atoms: _146  and  _148
REMARK   62  A    between atoms: _148  and  _149
REMARK   63  A    between atoms: _148  and  _151
REMARK   64  A    between atoms: _151  and  _152
REMARK   65  A    between atoms: _152  and  _153
REMARK   66  A    between atoms: _156  and  _158
REMARK   67  A    between atoms: _158  and  _159
REMARK   68  A    between atoms: _158  and  _161
REMARK   69  A    between atoms: _164  and  _166
REMARK   70  A    between atoms: _166  and  _167
REMARK   71  A    between atoms: _166  and  _169
REMARK   72  A    between atoms: _169  and  _170
REMARK   73  A    between atoms: _172  and  _174
REMARK   74  A    between atoms: _174  and  _175
REMARK   75  A    between atoms: _174  and  _177
REMARK   76  A    between atoms: _177  and  _178
REMARK   77  A    between atoms: _178  and  _179
REMARK   78  A    between atoms: _184  and  _186
REMARK   79  A    between atoms: _186  and  _187
REMARK   80  A    between atoms: _186  and  _189
REMARK   81  A    between atoms: _191  and  _193
REMARK   82  A    between atoms: _193  and  _194
REMARK   83  A    between atoms: _193  and  _196
REMARK   84  A    between atoms: _198  and  _200
REMARK   85  A    between atoms: _200  and  _201
REMARK   86  A    between atoms: _200  and  _203
REMARK   87  A    between atoms: _203  and  _204
REMARK   88  A    between atoms: _207  and  _209
REMARK   89  A    between atoms: _209  and  _210
REMARK   90  A    between atoms: _209  and  _212
REMARK   91  A    between atoms: _212  and  _213
REMARK   92  A    between atoms: _216  and  _218
REMARK   93  A    between atoms: _218  and  _219
REMARK   94  A    between atoms: _218  and  _221
REMARK   95  A    between atoms: _221  and  _222
REMARK   96  A    between atoms: _222  and  _223
REMARK   97  A    between atoms: _223  and  _224
REMARK   98  A    between atoms: _224  and  _225
REMARK   99  A    between atoms: _229  and  _231
REMARK  100  A    between atoms: _231  and  _232
REMARK  101  A    between atoms: _231  and  _234
REMARK  102  A    between atoms: _234  and  _235
REMARK  103  A    between atoms: _240  and  _242
REMARK  104  A    between atoms: _242  and  _243
REMARK  105  A    between atoms: _242  and  _245
REMARK  106  A    between atoms: _245  and  _246
REMARK  107  A    between atoms: _251  and  _252
REMARK  108  A    between atoms: _254  and  _256
REMARK  109  A    between atoms: _256  and  _257
REMARK  110  A    between atoms: _256  and  _259
REMARK  111  A    between atoms: _262  and  _264
REMARK  112  A    between atoms: _264  and  _265
REMARK  113  A    between atoms: _264  and  _267
REMARK  114  A    between atoms: _267  and  _268
REMARK  115  A    between atoms: _268  and  _269
REMARK  116  A    between atoms: _269  and  _270
REMARK  117  A    between atoms: _270  and  _271
REMARK  118  A    between atoms: _275  and  _277
REMARK  119  A    between atoms: _277  and  _278
REMARK  120  A    between atoms: _277  and  _280
REMARK  121  A    between atoms: _280  and  _281
REMARK  122  A    between atoms: _284  and  _286
REMARK  123  A    between atoms: _286  and  _287
REMARK  124  A    between atoms: _286  and  _289
REMARK  125  A    between atoms: _289  and  _290
REMARK  126  A    between atoms: _290  and  _291
REMARK  127  A    between atoms: _291  and  _292
REMARK  128  A    between atoms: _292  and  _293
REMARK                            x       y       z     vdW  Elec       q    Type
REMARK                         _______ _______ _______ _____ _____    ______ ____
ROOT
ATOM      1  O   HOH     1      23.671  30.933  30.524  0.00  0.00    +0.000 OA
ENDROOT
TORSDOF 0
REMARK  Name = ../refined-set-2016/4g0p/4g0p_pocket.pdb
REMARK  128 active torsions:
REMARK  status: ('A' for Active; 'I' for Inactive)
REMARK    1  A    between atoms: _1  and  _3
REMARK    2  A    between atoms: _3  and  _4
REMARK    3  A    between atoms: _3  and  _6
REMARK    4  A    between atoms: _6  and  _7
REMARK    5  A    between atoms: _10  and  _12
REMARK    6  A    between atoms: _12  and  _13
REMARK    7  A    between atoms: _12  and  _15
REMARK    8  A    between atoms: _15  and  _16
REMARK    9  A    between atoms: _19  and  _21
REMARK   10  A    between atoms: _21  and  _22
REMARK   11  A    between atoms: _21  and  _24
REMARK   12  A    between atoms: _27  and  _29
REMARK   13  A    between atoms: _29  and  _30
REMARK   14  A    between atoms: _29  and  _32
REMARK   15  A    between atoms: _32  and  _33
REMARK   16  A    between atoms: _37  and  _38
REMARK   17  A    between atoms: _43  and  _45
REMARK   18  A    between atoms: _45  and  _46
REMARK   19  A    between atoms: _45  and  _48
REMARK   20  A    between atoms: _48  and  _49
REMARK   21  A    between atoms: _52  and  _54
REMARK   22  A    between atoms: _54  and  _55
REMARK   23  A    between atoms: _54  and  _57
REMARK   24  A    between atoms: _57  and  _58
REMARK   25  A    between atoms: _63  and  _65
REMARK   26  A    between atoms: _65  and  _66
REMARK   27  A    between atoms: _65  and  _68
REMARK   28  A    between atoms: _68  and  _69
REMARK   29  A    between atoms: _74  and  _76
REMARK   30  A    between atoms: _76  and  _77
REMARK   31  A    between atoms: _79  and  _81
REMARK   32  A    between atoms: _81  and  _82
REMARK   33  A    between atoms: _81  and  _84
REMARK   34  A    between atoms: _84  and  _85
REMARK   35  A    between atoms: _87  and  _89
REMARK   36  A    between atoms: _89  and  _90
REMARK   37  A    between atoms: _89  and  _92
REMARK   38  A    between atoms: _92  and  _93
REMARK   39  A    between atoms: _96  and  _98
REMARK   40  A    between atoms: _98  and  _99
REMARK   41  A    between atoms: _98  and  _101
REMARK   42  A    between atoms: _101  and  _102
REMARK   43  A    between atoms: _107  and  _108
REMARK   44  A    between atoms: _110  and  _112
REMARK   45  A    between atoms: _112  and  _113
REMARK   46  A    between atoms: _115  and  _117
REMARK   47  A    between atoms: _117  and  _118
REMARK   48  A    between atoms: _117  and  _120
REMARK   49  A    between atoms: _120  and  _121
REMARK   50  A    between atoms: _124  and  _126
REMARK   51  A    between atoms: _126  and  _127
REMARK   52  A    between atoms: _126  and  _129
REMARK   53  A    between atoms: _129  and  _130
REMARK   54  A    between atoms: _133  and  _135
REMARK   55  A    between atoms: _135  and  _136
REMARK   56  A    between atoms: _135  and  _138
REMARK   57  A    between atoms: _138  and  _139
REMARK   58  A    between atoms: _139  and  _140
REMARK   59  A    between atoms: _140  and  _141
REMARK   60  A    between atoms: _141  and  _142
REMARK   61  A    between atoms: _146  and  _148
REMARK   62  A    between atoms: _148  and  _149
REMARK   63  A    between atoms: _148  and  _151
REMARK   64  A    between atoms: _151  and  _152
REMARK   65  A    between atoms: _152  and  _153
REMARK   66  A    between atoms: _156  and  _158
REMARK   67  A    between atoms: _158  and  _159
REMARK   68  A    between atoms: _158  and  _161
REMARK   69  A    between atoms: _164  and  _166
REMARK   70  A    between atoms: _166  and  _167
REMARK   71  A    between atoms: _166  and  _169
REMARK   72  A    between atoms: _169  and  _170
REMARK   73  A    between atoms: _172  and  _174
REMARK   74  A    between atoms: _174  and  _175
REMARK   75  A    between atoms: _174  and  _177
REMARK   76  A    between atoms: _177  and  _178
REMARK   77  A    between atoms: _178  and  _179
REMARK   78  A    between atoms: _184  and  _186
REMARK   79  A    between atoms: _186  and  _187
REMARK   80  A    between atoms: _186  and  _189
REMARK   81  A    between atoms: _191  and  _193
REMARK   82  A    between atoms: _193  and  _194
REMARK   83  A    between atoms: _193  and  _196
REMARK   84  A    between atoms: _198  and  _200
REMARK   85  A    between atoms: _200  and  _201
REMARK   86  A    between atoms: _200  and  _203
REMARK   87  A    between atoms: _203  and  _204
REMARK   88  A    between atoms: _207  and  _209
REMARK   89  A    between atoms: _209  and  _210
REMARK   90  A    between atoms: _209  and  _212
REMARK   91  A    between atoms: _212  and  _213
REMARK   92  A    between atoms: _216  and  _218
REMARK   93  A    between atoms: _218  and  _219
REMARK   94  A    between atoms: _218  and  _221
REMARK   95  A    between atoms: _221  and  _222
REMARK   96  A    between atoms: _222  and  _223
REMARK   97  A    between atoms: _223  and  _224
REMARK   98  A    between atoms: _224  and  _225
REMARK   99  A    between atoms: _229  and  _231
REMARK  100  A    between atoms: _231  and  _232
REMARK  101  A    between atoms: _231  and  _234
REMARK  102  A    between atoms: _234  and  _235
REMARK  103  A    between atoms: _240  and  _242
REMARK  104  A    between atoms: _242  and  _243
REMARK  105  A    between atoms: _242  and  _245
REMARK  106  A    between atoms: _245  and  _246
REMARK  107  A    between atoms: _251  and  _252
REMARK  108  A    between atoms: _254  and  _256
REMARK  109  A    between atoms: _256  and  _257
REMARK  110  A    between atoms: _256  and  _259
REMARK  111  A    between atoms: _262  and  _264
REMARK  112  A    between atoms: _264  and  _265
REMARK  113  A    between atoms: _264  and  _267
REMARK  114  A    between atoms: _267  and  _268
REMARK  115  A    between atoms: _268  and  _269
REMARK  116  A    between atoms: _269  and  _270
REMARK  117  A    between atoms: _270  and  _271
REMARK  118  A    between atoms: _275  and  _277
REMARK  119  A    between atoms: _277  and  _278
REMARK  120  A    between atoms: _277  and  _280
REMARK  121  A    between atoms: _280  and  _281
REMARK  122  A    between atoms: _284  and  _286
REMARK  123  A    between atoms: _286  and  _287
REMARK  124  A    between atoms: _286  and  _289
REMARK  125  A    between atoms: _289  and  _290
REMARK  126  A    between atoms: _290  and  _291
REMARK  127  A    between atoms: _291  and  _292
REMARK  128  A    between atoms: _292  and  _293
REMARK                            x       y       z     vdW  Elec       q    Type
REMARK                         _______ _______ _______ _____ _____    ______ ____
ROOT
ATOM      1  O   HOH     1      25.235  28.806  30.685  0.00  0.00    +0.000 OA
ENDROOT
TORSDOF 0
REMARK  Name = ../refined-set-2016/4g0p/4g0p_pocket.pdb
REMARK  128 active torsions:
REMARK  status: ('A' for Active; 'I' for Inactive)
REMARK    1  A    between atoms: _1  and  _3
REMARK    2  A    between atoms: _3  and  _4
REMARK    3  A    between atoms: _3  and  _6
REMARK    4  A    between atoms: _6  and  _7
REMARK    5  A    between atoms: _10  and  _12
REMARK    6  A    between atoms: _12  and  _13
REMARK    7  A    between atoms: _12  and  _15
REMARK    8  A    between atoms: _15  and  _16
REMARK    9  A    between atoms: _19  and  _21
REMARK   10  A    between atoms: _21  and  _22
REMARK   11  A    between atoms: _21  and  _24
REMARK   12  A    between atoms: _27  and  _29
REMARK   13  A    between atoms: _29  and  _30
REMARK   14  A    between atoms: _29  and  _32
REMARK   15  A    between atoms: _32  and  _33
REMARK   16  A    between atoms: _37  and  _38
REMARK   17  A    between atoms: _43  and  _45
REMARK   18  A    between atoms: _45  and  _46
REMARK   19  A    between atoms: _45  and  _48
REMARK   20  A    between atoms: _48  and  _49
REMARK   21  A    between atoms: _52  and  _54
REMARK   22  A    between atoms: _54  and  _55
REMARK   23  A    between atoms: _54  and  _57
REMARK   24  A    between atoms: _57  and  _58
REMARK   25  A    between atoms: _63  and  _65
REMARK   26  A    between atoms: _65  and  _66
REMARK   27  A    between atoms: _65  and  _68
REMARK   28  A    between atoms: _68  and  _69
REMARK   29  A    between atoms: _74  and  _76
REMARK   30  A    between atoms: _76  and  _77
REMARK   31  A    between atoms: _79  and  _81
REMARK   32  A    between atoms: _81  and  _82
REMARK   33  A    between atoms: _81  and  _84
REMARK   34  A    between atoms: _84  and  _85
REMARK   35  A    between atoms: _87  and  _89
REMARK   36  A    between atoms: _89  and  _90
REMARK   37  A    between atoms: _89  and  _92
REMARK   38  A    between atoms: _92  and  _93
REMARK   39  A    between atoms: _96  and  _98
REMARK   40  A    between atoms: _98  and  _99
REMARK   41  A    between atoms: _98  and  _101
REMARK   42  A    between atoms: _101  and  _102
REMARK   43  A    between atoms: _107  and  _108
REMARK   44  A    between atoms: _110  and  _112
REMARK   45  A    between atoms: _112  and  _113
REMARK   46  A    between atoms: _115  and  _117
REMARK   47  A    between atoms: _117  and  _118
REMARK   48  A    between atoms: _117  and  _120
REMARK   49  A    between atoms: _120  and  _121
REMARK   50  A    between atoms: _124  and  _126
REMARK   51  A    between atoms: _126  and  _127
REMARK   52  A    between atoms: _126  and  _129
REMARK   53  A    between atoms: _129  and  _130
REMARK   54  A    between atoms: _133  and  _135
REMARK   55  A    between atoms: _135  and  _136
REMARK   56  A    between atoms: _135  and  _138
REMARK   57  A    between atoms: _138  and  _139
REMARK   58  A    between atoms: _139  and  _140
REMARK   59  A    between atoms: _140  and  _141
REMARK   60  A    between atoms: _141  and  _142
REMARK   61  A    between atoms: _146  and  _148
REMARK   62  A    between atoms: _148  and  _149
REMARK   63  A    between atoms: _148  and  _151
REMARK   64  A    between atoms: _151  and  _152
REMARK   65  A    between atoms: _152  and  _153
REMARK   66  A    between atoms: _156  and  _158
REMARK   67  A    between atoms: _158  and  _159
REMARK   68  A    between atoms: _158  and  _161
REMARK   69  A    between atoms: _164  and  _166
REMARK   70  A    between atoms: _166  and  _167
REMARK   71  A    between atoms: _166  and  _169
REMARK   72  A    between atoms: _169  and  _170
REMARK   73  A    between atoms: _172  and  _174
REMARK   74  A    between atoms: _174  and  _175
REMARK   75  A    between atoms: _174  and  _177
REMARK   76  A    between atoms: _177  and  _178
REMARK   77  A    between atoms: _178  and  _179
REMARK   78  A    between atoms: _184  and  _186
REMARK   79  A    between atoms: _186  and  _187
REMARK   80  A    between atoms: _186  and  _189
REMARK   81  A    between atoms: _191  and  _193
REMARK   82  A    between atoms: _193  and  _194
REMARK   83  A    between atoms: _193  and  _196
REMARK   84  A    between atoms: _198  and  _200
REMARK   85  A    between atoms: _200  and  _201
REMARK   86  A    between atoms: _200  and  _203
REMARK   87  A    between atoms: _203  and  _204
REMARK   88  A    between atoms: _207  and  _209
REMARK   89  A    between atoms: _209  and  _210
REMARK   90  A    between atoms: _209  and  _212
REMARK   91  A    between atoms: _212  and  _213
REMARK   92  A    between atoms: _216  and  _218
REMARK   93  A    between atoms: _218  and  _219
REMARK   94  A    between atoms: _218  and  _221
REMARK   95  A    between atoms: _221  and  _222
REMARK   96  A    between atoms: _222  and  _223
REMARK   97  A    between atoms: _223  and  _224
REMARK   98  A    between atoms: _224  and  _225
REMARK   99  A    between atoms: _229  and  _231
REMARK  100  A    between atoms: _231  and  _232
REMARK  101  A    between atoms: _231  and  _234
REMARK  102  A    between atoms: _234  and  _235
REMARK  103  A    between atoms: _240  and  _242
REMARK  104  A    between atoms: _242  and  _243
REMARK  105  A    between atoms: _242  and  _245
REMARK  106  A    between atoms: _245  and  _246
REMARK  107  A    between atoms: _251  and  _252
REMARK  108  A    between atoms: _254  and  _256
REMARK  109  A    between atoms: _256  and  _257
REMARK  110  A    between atoms: _256  and  _259
REMARK  111  A    between atoms: _262  and  _264
REMARK  112  A    between atoms: _264  and  _265
REMARK  113  A    between atoms: _264  and  _267
REMARK  114  A    between atoms: _267  and  _268
REMARK  115  A    between atoms: _268  and  _269
REMARK  116  A    between atoms: _269  and  _270
REMARK  117  A    between atoms: _270  and  _271
REMARK  118  A    between atoms: _275  and  _277
REMARK  119  A    between atoms: _277  and  _278
REMARK  120  A    between atoms: _277  and  _280
REMARK  121  A    between atoms: _280  and  _281
REMARK  122  A    between atoms: _284  and  _286
REMARK  123  A    between atoms: _286  and  _287
REMARK  124  A    between atoms: _286  and  _289
REMARK  125  A    between atoms: _289  and  _290
REMARK  126  A    between atoms: _290  and  _291
REMARK  127  A    between atoms: _291  and  _292
REMARK  128  A    between atoms: _292  and  _293
REMARK                            x       y       z     vdW  Elec       q    Type
REMARK                         _______ _______ _______ _____ _____    ______ ____
ROOT
ATOM      1  O   HOH     1      22.892  23.837  30.285  0.00  0.00    +0.000 OA
ENDROOT
TORSDOF 0
