REMARK  Name = ../refined-set-2016/3zxz/3zxz_pocket.pdb
REMARK  242 active torsions:
REMARK  status: ('A' for Active; 'I' for Inactive)
REMARK    1  A    between atoms: _1  and  _3
REMARK    2  A    between atoms: _3  and  _4
REMARK    3  A    between atoms: _3  and  _6
REMARK    4  A    between atoms: _9  and  _11
REMARK    5  A    between atoms: _11  and  _12
REMARK    6  A    between atoms: _11  and  _14
REMARK    7  A    between atoms: _14  and  _15
REMARK    8  A    between atoms: _18  and  _20
REMARK    9  A    between atoms: _20  and  _21
REMARK   10  A    between atoms: _23  and  _25
REMARK   11  A    between atoms: _25  and  _26
REMARK   12  A    between atoms: _25  and  _28
REMARK   13  A    between atoms: _28  and  _29
REMARK   14  A    between atoms: _29  and  _30
REMARK   15  A    between atoms: _30  and  _31
REMARK   16  A    between atoms: _40  and  _42
REMARK   17  A    between atoms: _42  and  _43
REMARK   18  A    between atoms: _45  and  _47
REMARK   19  A    between atoms: _47  and  _48
REMARK   20  A    between atoms: _47  and  _50
REMARK   21  A    between atoms: _52  and  _54
REMARK   22  A    between atoms: _54  and  _55
REMARK   23  A    between atoms: _54  and  _57
REMARK   24  A    between atoms: _60  and  _62
REMARK   25  A    between atoms: _62  and  _63
REMARK   26  A    between atoms: _62  and  _65
REMARK   27  A    between atoms: _65  and  _66
REMARK   28  A    between atoms: _71  and  _72
REMARK   29  A    between atoms: _74  and  _76
REMARK   30  A    between atoms: _76  and  _77
REMARK   31  A    between atoms: _76  and  _79
REMARK   32  A    between atoms: _79  and  _80
REMARK   33  A    between atoms: _85  and  _87
REMARK   34  A    between atoms: _87  and  _88
REMARK   35  A    between atoms: _90  and  _92
REMARK   36  A    between atoms: _92  and  _93
REMARK   37  A    between atoms: _92  and  _95
REMARK   38  A    between atoms: _95  and  _96
REMARK   39  A    between atoms: _101  and  _103
REMARK   40  A    between atoms: _103  and  _104
REMARK   41  A    between atoms: _103  and  _106
REMARK   42  A    between atoms: _108  and  _110
REMARK   43  A    between atoms: _110  and  _111
REMARK   44  A    between atoms: _114  and  _116
REMARK   45  A    between atoms: _116  and  _117
REMARK   46  A    between atoms: _116  and  _119
REMARK   47  A    between atoms: _122  and  _124
REMARK   48  A    between atoms: _124  and  _125
REMARK   49  A    between atoms: _124  and  _127
REMARK   50  A    between atoms: _127  and  _128
REMARK   51  A    between atoms: _128  and  _129
REMARK   52  A    between atoms: _129  and  _130
REMARK   53  A    between atoms: _130  and  _131
REMARK   54  A    between atoms: _135  and  _137
REMARK   55  A    between atoms: _137  and  _138
REMARK   56  A    between atoms: _137  and  _140
REMARK   57  A    between atoms: _140  and  _141
REMARK   58  A    between atoms: _143  and  _145
REMARK   59  A    between atoms: _145  and  _146
REMARK   60  A    between atoms: _145  and  _148
REMARK   61  A    between atoms: _148  and  _149
REMARK   62  A    between atoms: _149  and  _150
REMARK   63  A    between atoms: _152  and  _154
REMARK   64  A    between atoms: _154  and  _155
REMARK   65  A    between atoms: _154  and  _157
REMARK   66  A    between atoms: _157  and  _158
REMARK   67  A    between atoms: _161  and  _163
REMARK   68  A    between atoms: _163  and  _164
REMARK   69  A    between atoms: _163  and  _166
REMARK   70  A    between atoms: _166  and  _167
REMARK   71  A    between atoms: _169  and  _171
REMARK   72  A    between atoms: _171  and  _172
REMARK   73  A    between atoms: _171  and  _174
REMARK   74  A    between atoms: _177  and  _179
REMARK   75  A    between atoms: _179  and  _180
REMARK   76  A    between atoms: _179  and  _182
REMARK   77  A    between atoms: _185  and  _187
REMARK   78  A    between atoms: _187  and  _188
REMARK   79  A    between atoms: _187  and  _190
REMARK   80  A    between atoms: _190  and  _191
REMARK   81  A    between atoms: _195  and  _196
REMARK   82  A    between atoms: _201  and  _203
REMARK   83  A    between atoms: _203  and  _204
REMARK   84  A    between atoms: _203  and  _206
REMARK   85  A    between atoms: _206  and  _207
REMARK   86  A    between atoms: _212  and  _213
REMARK   87  A    between atoms: _215  and  _217
REMARK   88  A    between atoms: _217  and  _218
REMARK   89  A    between atoms: _217  and  _220
REMARK   90  A    between atoms: _220  and  _221
REMARK   91  A    between atoms: _221  and  _222
REMARK   92  A    between atoms: _224  and  _226
REMARK   93  A    between atoms: _226  and  _227
REMARK   94  A    between atoms: _226  and  _229
REMARK   95  A    between atoms: _229  and  _230
REMARK   96  A    between atoms: _230  and  _231
REMARK   97  A    between atoms: _231  and  _232
REMARK   98  A    between atoms: _232  and  _233
REMARK   99  A    between atoms: _237  and  _239
REMARK  100  A    between atoms: _239  and  _240
REMARK  101  A    between atoms: _239  and  _242
REMARK  102  A    between atoms: _242  and  _243
REMARK  103  A    between atoms: _248  and  _250
REMARK  104  A    between atoms: _250  and  _251
REMARK  105  A    between atoms: _253  and  _255
REMARK  106  A    between atoms: _255  and  _256
REMARK  107  A    between atoms: _255  and  _258
REMARK  108  A    between atoms: _258  and  _259
REMARK  109  A    between atoms: _262  and  _264
REMARK  110  A    between atoms: _264  and  _265
REMARK  111  A    between atoms: _264  and  _267
REMARK  112  A    between atoms: _267  and  _268
REMARK  113  A    between atoms: _271  and  _273
REMARK  114  A    between atoms: _273  and  _274
REMARK  115  A    between atoms: _273  and  _276
REMARK  116  A    between atoms: _276  and  _277
REMARK  117  A    between atoms: _277  and  _278
REMARK  118  A    between atoms: _278  and  _279
REMARK  119  A    between atoms: _288  and  _290
REMARK  120  A    between atoms: _290  and  _291
REMARK  121  A    between atoms: _290  and  _293
REMARK  122  A    between atoms: _293  and  _294
REMARK  123  A    between atoms: _299  and  _301
REMARK  124  A    between atoms: _301  and  _302
REMARK  125  A    between atoms: _301  and  _304
REMARK  126  A    between atoms: _304  and  _305
REMARK  127  A    between atoms: _311  and  _313
REMARK  128  A    between atoms: _313  and  _314
REMARK  129  A    between atoms: _313  and  _316
REMARK  130  A    between atoms: _316  and  _317
REMARK  131  A    between atoms: _317  and  _318
REMARK  132  A    between atoms: _318  and  _319
REMARK  133  A    between atoms: _328  and  _330
REMARK  134  A    between atoms: _330  and  _331
REMARK  135  A    between atoms: _330  and  _333
REMARK  136  A    between atoms: _333  and  _334
REMARK  137  A    between atoms: _339  and  _341
REMARK  138  A    between atoms: _341  and  _342
REMARK  139  A    between atoms: _341  and  _344
REMARK  140  A    between atoms: _344  and  _345
REMARK  141  A    between atoms: _348  and  _350
REMARK  142  A    between atoms: _350  and  _351
REMARK  143  A    between atoms: _354  and  _356
REMARK  144  A    between atoms: _356  and  _357
REMARK  145  A    between atoms: _360  and  _362
REMARK  146  A    between atoms: _362  and  _363
REMARK  147  A    between atoms: _362  and  _365
REMARK  148  A    between atoms: _365  and  _366
REMARK  149  A    between atoms: _366  and  _367
REMARK  150  A    between atoms: _367  and  _368
REMARK  151  A    between atoms: _377  and  _379
REMARK  152  A    between atoms: _379  and  _380
REMARK  153  A    between atoms: _379  and  _382
REMARK  154  A    between atoms: _382  and  _383
REMARK  155  A    between atoms: _388  and  _390
REMARK  156  A    between atoms: _390  and  _391
REMARK  157  A    between atoms: _390  and  _393
REMARK  158  A    between atoms: _395  and  _397
REMARK  159  A    between atoms: _397  and  _398
REMARK  160  A    between atoms: _397  and  _400
REMARK  161  A    between atoms: _400  and  _401
REMARK  162  A    between atoms: _401  and  _402
REMARK  163  A    between atoms: _404  and  _406
REMARK  164  A    between atoms: _406  and  _407
REMARK  165  A    between atoms: _406  and  _409
REMARK  166  A    between atoms: _409  and  _410
REMARK  167  A    between atoms: _413  and  _415
REMARK  168  A    between atoms: _415  and  _416
REMARK  169  A    between atoms: _415  and  _418
REMARK  170  A    between atoms: _418  and  _419
REMARK  171  A    between atoms: _422  and  _424
REMARK  172  A    between atoms: _424  and  _425
REMARK  173  A    between atoms: _424  and  _427
REMARK  174  A    between atoms: _427  and  _428
REMARK  175  A    between atoms: _428  and  _429
REMARK  176  A    between atoms: _429  and  _430
REMARK  177  A    between atoms: _430  and  _431
REMARK  178  A    between atoms: _435  and  _437
REMARK  179  A    between atoms: _437  and  _438
REMARK  180  A    between atoms: _437  and  _440
REMARK  181  A    between atoms: _443  and  _445
REMARK  182  A    between atoms: _445  and  _446
REMARK  183  A    between atoms: _449  and  _451
REMARK  184  A    between atoms: _451  and  _452
REMARK  185  A    between atoms: _451  and  _454
REMARK  186  A    between atoms: _454  and  _455
REMARK  187  A    between atoms: _458  and  _460
REMARK  188  A    between atoms: _460  and  _461
REMARK  189  A    between atoms: _460  and  _463
REMARK  190  A    between atoms: _463  and  _464
REMARK  191  A    between atoms: _470  and  _472
REMARK  192  A    between atoms: _472  and  _473
REMARK  193  A    between atoms: _472  and  _475
REMARK  194  A    between atoms: _475  and  _476
REMARK  195  A    between atoms: _479  and  _481
REMARK  196  A    between atoms: _481  and  _482
REMARK  197  A    between atoms: _485  and  _487
REMARK  198  A    between atoms: _487  and  _488
REMARK  199  A    between atoms: _487  and  _490
REMARK  200  A    between atoms: _490  and  _491
REMARK  201  A    between atoms: _491  and  _492
REMARK  202  A    between atoms: _492  and  _493
REMARK  203  A    between atoms: _502  and  _504
REMARK  204  A    between atoms: _504  and  _505
REMARK  205  A    between atoms: _504  and  _507
REMARK  206  A    between atoms: _507  and  _508
REMARK  207  A    between atoms: _511  and  _513
REMARK  208  A    between atoms: _513  and  _514
REMARK  209  A    between atoms: _513  and  _516
REMARK  210  A    between atoms: _516  and  _517
REMARK  211  A    between atoms: _517  and  _518
REMARK  212  A    between atoms: _520  and  _522
REMARK  213  A    between atoms: _522  and  _523
REMARK  214  A    between atoms: _522  and  _525
REMARK  215  A    between atoms: _525  and  _526
REMARK  216  A    between atoms: _531  and  _532
REMARK  217  A    between atoms: _534  and  _536
REMARK  218  A    between atoms: _536  and  _537
REMARK  219  A    between atoms: _536  and  _539
REMARK  220  A    between atoms: _539  and  _540
REMARK  221  A    between atoms: _543  and  _545
REMARK  222  A    between atoms: _545  and  _546
REMARK  223  A    between atoms: _545  and  _548
REMARK  224  A    between atoms: _548  and  _549
REMARK  225  A    between atoms: _549  and  _550
REMARK  226  A    between atoms: _550  and  _551
REMARK  227  A    between atoms: _551  and  _552
REMARK  228  A    between atoms: _556  and  _558
REMARK  229  A    between atoms: _558  and  _559
REMARK  230  A    between atoms: _558  and  _561
REMARK  231  A    between atoms: _561  and  _562
REMARK  232  A    between atoms: _562  and  _563
REMARK  233  A    between atoms: _566  and  _568
REMARK  234  A    between atoms: _568  and  _569
REMARK  235  A    between atoms: _568  and  _571
REMARK  236  A    between atoms: _571  and  _572
REMARK  237  A    between atoms: _577  and  _578
REMARK  238  A    between atoms: _580  and  _582
REMARK  239  A    between atoms: _582  and  _583
REMARK  240  A    between atoms: _582  and  _585
REMARK  241  A    between atoms: _585  and  _586
REMARK  242  A    between atoms: _591  and  _592
REMARK                            x       y       z     vdW  Elec       q    Type
REMARK                         _______ _______ _______ _____ _____    ______ ____
ROOT
ATOM      1  C   GLY A   3      17.666  87.381  -0.465  0.00  0.00    +0.243 C 
ATOM      2  O   GLY A   3      17.640  88.607  -0.560  0.00  0.00    -0.273 OA
ATOM      3  N   ARG A   4      16.577  86.628  -0.576  0.00  0.00    -0.297 N 
ATOM      4  H   ARG A   4      16.649  85.597  -0.456  0.00  0.00    +0.150 HD
ENDROOT
BRANCH   3   5
ATOM      5  CA  ARG A   4      15.284  87.232  -0.864  0.00  0.00    +0.149 C 
BRANCH   5   6
ATOM      6  C   ARG A   4      14.188  86.637   0.002  0.00  0.00    +0.241 C 
ATOM      7  N   GLY A   5      13.513  87.495   0.757  0.00  0.00    -0.296 N 
ATOM      8  H   GLY A   5      13.769  88.503   0.744  0.00  0.00    +0.150 HD
ATOM      9  O   ARG A   4      13.959  85.428  -0.014  0.00  0.00    -0.273 OA
BRANCH   7  10
ATOM     10  CA  GLY A   5      12.423  87.042   1.599  0.00  0.00    +0.163 C 
BRANCH  10  11
ATOM     11  C   GLY A   5      11.130  87.747   1.253  0.00  0.00    +0.229 C 
ATOM     12  O   GLY A   5      11.114  88.657   0.427  0.00  0.00    -0.286 OA
ENDBRANCH  10  11
ENDBRANCH   7  10
ENDBRANCH   5   6
BRANCH   5  13
ATOM     13  CB  ARG A   4      14.929  87.043  -2.341  0.00  0.00    +0.033 C 
BRANCH  13  14
ATOM     14  CG  ARG A   4      15.957  87.614  -3.302  0.00  0.00    +0.045 C 
BRANCH  14  15
ATOM     15  CD  ARG A   4      15.498  87.488  -4.745  0.00  0.00    +0.174 C 
BRANCH  15  16
ATOM     16  NE  ARG A   4      16.519  87.977  -5.667  0.00  0.00    -0.265 N 
ATOM     17  HE  ARG A   4      17.233  87.301  -6.006  0.00  0.00    +0.259 HD
ATOM     18  CZ  ARG A   4      16.594  89.231  -6.101  0.00  0.00    +0.342 C 
ATOM     19  NH2 ARG A   4      15.704  90.129  -5.698  0.00  0.00    -0.292 N 
ATOM     20 HH21 ARG A   4      14.946  89.852  -5.042  0.00  0.00    +0.255 HD
ATOM     21 HH22 ARG A   4      15.764  91.110  -6.039  0.00  0.00    +0.255 HD
ATOM     22  NH1 ARG A   4      17.565  89.589  -6.930  0.00  0.00    -0.292 N 
ATOM     23 HH11 ARG A   4      18.268  88.888  -7.241  0.00  0.00    +0.255 HD
ATOM     24 HH12 ARG A   4      17.623  90.570  -7.269  0.00  0.00    +0.255 HD
ENDBRANCH  15  16
ENDBRANCH  14  15
ENDBRANCH  13  14
ENDBRANCH   5  13
ENDBRANCH   3   5
BRANCH   1  25
ATOM     25  CA  GLY A   3      18.975  86.665  -0.212  0.00  0.00    +0.176 C 
BRANCH  25  28
ATOM     26  C   ILE A   2      21.330  87.068  -0.585  0.00  0.00    +0.241 C 
ATOM     27  O   ILE A   2      21.637  85.955  -0.161  0.00  0.00    -0.273 OA
ATOM     28  N   GLY A   3      20.082  87.518  -0.600  0.00  0.00    -0.295 N 
ATOM     29  H   GLY A   3      19.895  88.498  -0.895  0.00  0.00    +0.150 HD
BRANCH  26  30
ATOM     30  CA  ILE A   2      22.386  88.016  -1.143  0.00  0.00    +0.148 C 
BRANCH  30  32
ATOM     31  C   VAL A   1      21.864  89.747  -2.767  0.00  0.00    +0.238 C 
ATOM     32  N   ILE A   2      21.812  89.305  -1.514  0.00  0.00    -0.297 N 
ATOM     33  H   ILE A   2      21.354  89.889  -0.785  0.00  0.00    +0.150 HD
ATOM     34  O   VAL A   1      22.403  89.113  -3.677  0.00  0.00    -0.274 OA
BRANCH  31  35
ATOM     35  CA  VAL A   1      21.219  91.104  -3.037  0.00  0.00    +0.145 C 
BRANCH  35  36
ATOM     36  CB  VAL A   1      19.954  90.894  -3.901  0.00  0.00    +0.025 C 
ATOM     37  CG2 VAL A   1      18.985  89.963  -3.190  0.00  0.00    +0.002 C 
ATOM     38  CG1 VAL A   1      19.292  92.235  -4.187  0.00  0.00    +0.002 C 
ENDBRANCH  35  36
BRANCH  35  39
ATOM     39  N   VAL A   1      22.167  91.989  -3.701  0.00  0.00    -0.238 NA
ATOM     40  H   VAL A   1      22.079  92.150  -4.725  0.00  0.00    +0.142 HD
ENDBRANCH  35  39
ENDBRANCH  31  35
ENDBRANCH  30  32
BRANCH  30  41
ATOM     41  CB  ILE A   2      23.529  88.184  -0.111  0.00  0.00    +0.027 C 
ATOM     42  CG2 ILE A   2      24.651  89.000  -0.724  0.00  0.00    +0.002 C 
BRANCH  41  43
ATOM     43  CG1 ILE A   2      23.012  88.870   1.155  0.00  0.00    +0.002 C 
ATOM     44  CD1 ILE A   2      24.089  89.066   2.227  0.00  0.00    +0.000 C 
ENDBRANCH  41  43
ENDBRANCH  30  41
ENDBRANCH  26  30
ENDBRANCH  25  28
ENDBRANCH   1  25
TORSDOF 17
REMARK  Name = ../refined-set-2016/3zxz/3zxz_pocket.pdb
REMARK  242 active torsions:
REMARK  status: ('A' for Active; 'I' for Inactive)
REMARK    1  A    between atoms: _1  and  _3
REMARK    2  A    between atoms: _3  and  _4
REMARK    3  A    between atoms: _3  and  _6
REMARK    4  A    between atoms: _9  and  _11
REMARK    5  A    between atoms: _11  and  _12
REMARK    6  A    between atoms: _11  and  _14
REMARK    7  A    between atoms: _14  and  _15
REMARK    8  A    between atoms: _18  and  _20
REMARK    9  A    between atoms: _20  and  _21
REMARK   10  A    between atoms: _23  and  _25
REMARK   11  A    between atoms: _25  and  _26
REMARK   12  A    between atoms: _25  and  _28
REMARK   13  A    between atoms: _28  and  _29
REMARK   14  A    between atoms: _29  and  _30
REMARK   15  A    between atoms: _30  and  _31
REMARK   16  A    between atoms: _40  and  _42
REMARK   17  A    between atoms: _42  and  _43
REMARK   18  A    between atoms: _45  and  _47
REMARK   19  A    between atoms: _47  and  _48
REMARK   20  A    between atoms: _47  and  _50
REMARK   21  A    between atoms: _52  and  _54
REMARK   22  A    between atoms: _54  and  _55
REMARK   23  A    between atoms: _54  and  _57
REMARK   24  A    between atoms: _60  and  _62
REMARK   25  A    between atoms: _62  and  _63
REMARK   26  A    between atoms: _62  and  _65
REMARK   27  A    between atoms: _65  and  _66
REMARK   28  A    between atoms: _71  and  _72
REMARK   29  A    between atoms: _74  and  _76
REMARK   30  A    between atoms: _76  and  _77
REMARK   31  A    between atoms: _76  and  _79
REMARK   32  A    between atoms: _79  and  _80
REMARK   33  A    between atoms: _85  and  _87
REMARK   34  A    between atoms: _87  and  _88
REMARK   35  A    between atoms: _90  and  _92
REMARK   36  A    between atoms: _92  and  _93
REMARK   37  A    between atoms: _92  and  _95
REMARK   38  A    between atoms: _95  and  _96
REMARK   39  A    between atoms: _101  and  _103
REMARK   40  A    between atoms: _103  and  _104
REMARK   41  A    between atoms: _103  and  _106
REMARK   42  A    between atoms: _108  and  _110
REMARK   43  A    between atoms: _110  and  _111
REMARK   44  A    between atoms: _114  and  _116
REMARK   45  A    between atoms: _116  and  _117
REMARK   46  A    between atoms: _116  and  _119
REMARK   47  A    between atoms: _122  and  _124
REMARK   48  A    between atoms: _124  and  _125
REMARK   49  A    between atoms: _124  and  _127
REMARK   50  A    between atoms: _127  and  _128
REMARK   51  A    between atoms: _128  and  _129
REMARK   52  A    between atoms: _129  and  _130
REMARK   53  A    between atoms: _130  and  _131
REMARK   54  A    between atoms: _135  and  _137
REMARK   55  A    between atoms: _137  and  _138
REMARK   56  A    between atoms: _137  and  _140
REMARK   57  A    between atoms: _140  and  _141
REMARK   58  A    between atoms: _143  and  _145
REMARK   59  A    between atoms: _145  and  _146
REMARK   60  A    between atoms: _145  and  _148
REMARK   61  A    between atoms: _148  and  _149
REMARK   62  A    between atoms: _149  and  _150
REMARK   63  A    between atoms: _152  and  _154
REMARK   64  A    between atoms: _154  and  _155
REMARK   65  A    between atoms: _154  and  _157
REMARK   66  A    between atoms: _157  and  _158
REMARK   67  A    between atoms: _161  and  _163
REMARK   68  A    between atoms: _163  and  _164
REMARK   69  A    between atoms: _163  and  _166
REMARK   70  A    between atoms: _166  and  _167
REMARK   71  A    between atoms: _169  and  _171
REMARK   72  A    between atoms: _171  and  _172
REMARK   73  A    between atoms: _171  and  _174
REMARK   74  A    between atoms: _177  and  _179
REMARK   75  A    between atoms: _179  and  _180
REMARK   76  A    between atoms: _179  and  _182
REMARK   77  A    between atoms: _185  and  _187
REMARK   78  A    between atoms: _187  and  _188
REMARK   79  A    between atoms: _187  and  _190
REMARK   80  A    between atoms: _190  and  _191
REMARK   81  A    between atoms: _195  and  _196
REMARK   82  A    between atoms: _201  and  _203
REMARK   83  A    between atoms: _203  and  _204
REMARK   84  A    between atoms: _203  and  _206
REMARK   85  A    between atoms: _206  and  _207
REMARK   86  A    between atoms: _212  and  _213
REMARK   87  A    between atoms: _215  and  _217
REMARK   88  A    between atoms: _217  and  _218
REMARK   89  A    between atoms: _217  and  _220
REMARK   90  A    between atoms: _220  and  _221
REMARK   91  A    between atoms: _221  and  _222
REMARK   92  A    between atoms: _224  and  _226
REMARK   93  A    between atoms: _226  and  _227
REMARK   94  A    between atoms: _226  and  _229
REMARK   95  A    between atoms: _229  and  _230
REMARK   96  A    between atoms: _230  and  _231
REMARK   97  A    between atoms: _231  and  _232
REMARK   98  A    between atoms: _232  and  _233
REMARK   99  A    between atoms: _237  and  _239
REMARK  100  A    between atoms: _239  and  _240
REMARK  101  A    between atoms: _239  and  _242
REMARK  102  A    between atoms: _242  and  _243
REMARK  103  A    between atoms: _248  and  _250
REMARK  104  A    between atoms: _250  and  _251
REMARK  105  A    between atoms: _253  and  _255
REMARK  106  A    between atoms: _255  and  _256
REMARK  107  A    between atoms: _255  and  _258
REMARK  108  A    between atoms: _258  and  _259
REMARK  109  A    between atoms: _262  and  _264
REMARK  110  A    between atoms: _264  and  _265
REMARK  111  A    between atoms: _264  and  _267
REMARK  112  A    between atoms: _267  and  _268
REMARK  113  A    between atoms: _271  and  _273
REMARK  114  A    between atoms: _273  and  _274
REMARK  115  A    between atoms: _273  and  _276
REMARK  116  A    between atoms: _276  and  _277
REMARK  117  A    between atoms: _277  and  _278
REMARK  118  A    between atoms: _278  and  _279
REMARK  119  A    between atoms: _288  and  _290
REMARK  120  A    between atoms: _290  and  _291
REMARK  121  A    between atoms: _290  and  _293
REMARK  122  A    between atoms: _293  and  _294
REMARK  123  A    between atoms: _299  and  _301
REMARK  124  A    between atoms: _301  and  _302
REMARK  125  A    between atoms: _301  and  _304
REMARK  126  A    between atoms: _304  and  _305
REMARK  127  A    between atoms: _311  and  _313
REMARK  128  A    between atoms: _313  and  _314
REMARK  129  A    between atoms: _313  and  _316
REMARK  130  A    between atoms: _316  and  _317
REMARK  131  A    between atoms: _317  and  _318
REMARK  132  A    between atoms: _318  and  _319
REMARK  133  A    between atoms: _328  and  _330
REMARK  134  A    between atoms: _330  and  _331
REMARK  135  A    between atoms: _330  and  _333
REMARK  136  A    between atoms: _333  and  _334
REMARK  137  A    between atoms: _339  and  _341
REMARK  138  A    between atoms: _341  and  _342
REMARK  139  A    between atoms: _341  and  _344
REMARK  140  A    between atoms: _344  and  _345
REMARK  141  A    between atoms: _348  and  _350
REMARK  142  A    between atoms: _350  and  _351
REMARK  143  A    between atoms: _354  and  _356
REMARK  144  A    between atoms: _356  and  _357
REMARK  145  A    between atoms: _360  and  _362
REMARK  146  A    between atoms: _362  and  _363
REMARK  147  A    between atoms: _362  and  _365
REMARK  148  A    between atoms: _365  and  _366
REMARK  149  A    between atoms: _366  and  _367
REMARK  150  A    between atoms: _367  and  _368
REMARK  151  A    between atoms: _377  and  _379
REMARK  152  A    between atoms: _379  and  _380
REMARK  153  A    between atoms: _379  and  _382
REMARK  154  A    between atoms: _382  and  _383
REMARK  155  A    between atoms: _388  and  _390
REMARK  156  A    between atoms: _390  and  _391
REMARK  157  A    between atoms: _390  and  _393
REMARK  158  A    between atoms: _395  and  _397
REMARK  159  A    between atoms: _397  and  _398
REMARK  160  A    between atoms: _397  and  _400
REMARK  161  A    between atoms: _400  and  _401
REMARK  162  A    between atoms: _401  and  _402
REMARK  163  A    between atoms: _404  and  _406
REMARK  164  A    between atoms: _406  and  _407
REMARK  165  A    between atoms: _406  and  _409
REMARK  166  A    between atoms: _409  and  _410
REMARK  167  A    between atoms: _413  and  _415
REMARK  168  A    between atoms: _415  and  _416
REMARK  169  A    between atoms: _415  and  _418
REMARK  170  A    between atoms: _418  and  _419
REMARK  171  A    between atoms: _422  and  _424
REMARK  172  A    between atoms: _424  and  _425
REMARK  173  A    between atoms: _424  and  _427
REMARK  174  A    between atoms: _427  and  _428
REMARK  175  A    between atoms: _428  and  _429
REMARK  176  A    between atoms: _429  and  _430
REMARK  177  A    between atoms: _430  and  _431
REMARK  178  A    between atoms: _435  and  _437
REMARK  179  A    between atoms: _437  and  _438
REMARK  180  A    between atoms: _437  and  _440
REMARK  181  A    between atoms: _443  and  _445
REMARK  182  A    between atoms: _445  and  _446
REMARK  183  A    between atoms: _449  and  _451
REMARK  184  A    between atoms: _451  and  _452
REMARK  185  A    between atoms: _451  and  _454
REMARK  186  A    between atoms: _454  and  _455
REMARK  187  A    between atoms: _458  and  _460
REMARK  188  A    between atoms: _460  and  _461
REMARK  189  A    between atoms: _460  and  _463
REMARK  190  A    between atoms: _463  and  _464
REMARK  191  A    between atoms: _470  and  _472
REMARK  192  A    between atoms: _472  and  _473
REMARK  193  A    between atoms: _472  and  _475
REMARK  194  A    between atoms: _475  and  _476
REMARK  195  A    between atoms: _479  and  _481
REMARK  196  A    between atoms: _481  and  _482
REMARK  197  A    between atoms: _485  and  _487
REMARK  198  A    between atoms: _487  and  _488
REMARK  199  A    between atoms: _487  and  _490
REMARK  200  A    between atoms: _490  and  _491
REMARK  201  A    between atoms: _491  and  _492
REMARK  202  A    between atoms: _492  and  _493
REMARK  203  A    between atoms: _502  and  _504
REMARK  204  A    between atoms: _504  and  _505
REMARK  205  A    between atoms: _504  and  _507
REMARK  206  A    between atoms: _507  and  _508
REMARK  207  A    between atoms: _511  and  _513
REMARK  208  A    between atoms: _513  and  _514
REMARK  209  A    between atoms: _513  and  _516
REMARK  210  A    between atoms: _516  and  _517
REMARK  211  A    between atoms: _517  and  _518
REMARK  212  A    between atoms: _520  and  _522
REMARK  213  A    between atoms: _522  and  _523
REMARK  214  A    between atoms: _522  and  _525
REMARK  215  A    between atoms: _525  and  _526
REMARK  216  A    between atoms: _531  and  _532
REMARK  217  A    between atoms: _534  and  _536
REMARK  218  A    between atoms: _536  and  _537
REMARK  219  A    between atoms: _536  and  _539
REMARK  220  A    between atoms: _539  and  _540
REMARK  221  A    between atoms: _543  and  _545
REMARK  222  A    between atoms: _545  and  _546
REMARK  223  A    between atoms: _545  and  _548
REMARK  224  A    between atoms: _548  and  _549
REMARK  225  A    between atoms: _549  and  _550
REMARK  226  A    between atoms: _550  and  _551
REMARK  227  A    between atoms: _551  and  _552
REMARK  228  A    between atoms: _556  and  _558
REMARK  229  A    between atoms: _558  and  _559
REMARK  230  A    between atoms: _558  and  _561
REMARK  231  A    between atoms: _561  and  _562
REMARK  232  A    between atoms: _562  and  _563
REMARK  233  A    between atoms: _566  and  _568
REMARK  234  A    between atoms: _568  and  _569
REMARK  235  A    between atoms: _568  and  _571
REMARK  236  A    between atoms: _571  and  _572
REMARK  237  A    between atoms: _577  and  _578
REMARK  238  A    between atoms: _580  and  _582
REMARK  239  A    between atoms: _582  and  _583
REMARK  240  A    between atoms: _582  and  _585
REMARK  241  A    between atoms: _585  and  _586
REMARK  242  A    between atoms: _591  and  _592
REMARK                            x       y       z     vdW  Elec       q    Type
REMARK                         _______ _______ _______ _____ _____    ______ ____
ROOT
ATOM      1  CA  TYR A   3      21.956  92.857   1.213  0.00  0.00    +0.153 C 
ENDROOT
BRANCH   1   3
ATOM      2  C   VAL A   2      20.167  91.219   1.380  0.00  0.00    +0.241 C 
ATOM      3  N   TYR A   3      20.932  92.137   1.959  0.00  0.00    -0.297 N 
ATOM      4  H   TYR A   3      20.797  92.347   2.969  0.00  0.00    +0.150 HD
ATOM      5  O   VAL A   2      20.320  90.856   0.212  0.00  0.00    -0.273 OA
BRANCH   2   6
ATOM      6  CA  VAL A   2      19.054  90.626   2.238  0.00  0.00    +0.148 C 
BRANCH   6   9
ATOM      7  C   CYS A   1      16.803  91.334   1.623  0.00  0.00    +0.239 C 
ATOM      8  O   CYS A   1      16.706  92.095   2.584  0.00  0.00    -0.274 OA
ATOM      9  N   VAL A   2      17.857  90.549   1.414  0.00  0.00    -0.297 N 
ATOM     10  H   VAL A   2      17.824  89.858   0.637  0.00  0.00    +0.150 HD
BRANCH   7  11
ATOM     11  CA  CYS A   1      15.688  91.231   0.590  0.00  0.00    +0.156 C 
BRANCH  11  12
ATOM     12  CB  CYS A   1      16.184  91.777  -0.750  0.00  0.00    +0.095 C 
ATOM     13  SG  CYS A   1      15.132  91.359  -2.158  0.00  0.00    -0.080 S 
ENDBRANCH  11  12
BRANCH  11  14
ATOM     14  N   CYS A   1      14.489  91.942   1.015  0.00  0.00    -0.237 NA
ATOM     15  H   CYS A   1      14.376  92.946   0.769  0.00  0.00    +0.142 HD
ENDBRANCH  11  14
ENDBRANCH   7  11
ENDBRANCH   6   9
BRANCH   6  16
ATOM     16  CB  VAL A   2      19.490  89.227   2.726  0.00  0.00    +0.027 C 
ATOM     17  CG2 VAL A   2      20.655  89.354   3.697  0.00  0.00    +0.002 C 
ATOM     18  CG1 VAL A   2      18.316  88.514   3.381  0.00  0.00    +0.002 C 
ENDBRANCH   6  16
ENDBRANCH   2   6
ENDBRANCH   1   3
BRANCH   1  19
ATOM     19  C   TYR A   3      23.306  92.743   1.899  0.00  0.00    +0.241 C 
ATOM     20  O   TYR A   3      23.379  92.601   3.119  0.00  0.00    -0.273 OA
ATOM     21  N   HIS A   4      24.373  92.807   1.110  0.00  0.00    -0.297 N 
ATOM     22  H   HIS A   4      24.253  92.751   0.079  0.00  0.00    +0.150 HD
BRANCH  21  23
ATOM     23  CA  HIS A   4      25.708  92.954   1.670  0.00  0.00    +0.155 C 
BRANCH  23  24
ATOM     24  C   HIS A   4      25.794  94.289   2.399  0.00  0.00    +0.241 C 
ATOM     25  N   GLY A   5      26.230  94.249   3.654  0.00  0.00    -0.296 N 
ATOM     26  H   GLY A   5      26.402  93.332   4.113  0.00  0.00    +0.150 HD
ATOM     27  O   HIS A   4      25.461  95.333   1.838  0.00  0.00    -0.273 OA
BRANCH  25  28
ATOM     28  CA  GLY A   5      26.467  95.477   4.385  0.00  0.00    +0.163 C 
BRANCH  28  29
ATOM     29  C   GLY A   5      27.831  95.494   5.050  0.00  0.00    +0.229 C 
ATOM     30  O   GLY A   5      28.516  94.472   5.119  0.00  0.00    -0.286 OA
ENDBRANCH  28  29
ENDBRANCH  25  28
ENDBRANCH  23  24
BRANCH  23  31
ATOM     31  CB  HIS A   4      26.762  92.910   0.562  0.00  0.00    +0.076 C 
BRANCH  31  32
ATOM     32  CG  HIS A   4      28.131  93.317   1.014  0.00  0.00    +0.082 A 
ATOM     33  CD2 HIS A   4      28.740  93.214   2.219  0.00  0.00    +0.115 A 
ATOM     34  NE2 HIS A   4      30.001  93.744   2.084  0.00  0.00    -0.221 NA
ATOM     35  CE1 HIS A   4      30.161  94.159   0.840  0.00  0.00    +0.199 A 
ATOM     36  ND1 HIS A   4      29.047  93.912   0.173  0.00  0.00    -0.227 NA
ENDBRANCH  31  32
ENDBRANCH  23  31
ENDBRANCH  21  23
ENDBRANCH   1  19
BRANCH   1  37
ATOM     37  CB  TYR A   3      21.578  94.337   1.099  0.00  0.00    +0.055 C 
BRANCH  37  38
ATOM     38  CG  TYR A   3      20.250  94.580   0.420  0.00  0.00    -0.020 A 
ATOM     39  CD2 TYR A   3      19.085  94.724   1.162  0.00  0.00    -0.001 A 
ATOM     40  CE2 TYR A   3      17.867  94.948   0.544  0.00  0.00    +0.036 A 
ATOM     41  CZ  TYR A   3      17.808  95.032  -0.833  0.00  0.00    +0.134 A 
ATOM     42  CE1 TYR A   3      18.953  94.893  -1.590  0.00  0.00    +0.036 A 
ATOM     43  CD1 TYR A   3      20.162  94.667  -0.964  0.00  0.00    -0.001 A 
BRANCH  41  44
ATOM     44  OH  TYR A   3      16.599  95.252  -1.453  0.00  0.00    -0.506 OA
ATOM     45  HH  TYR A   3      16.733  95.285  -2.433  0.00  0.00    +0.292 HD
ENDBRANCH  41  44
ENDBRANCH  37  38
ENDBRANCH   1  37
TORSDOF 17
REMARK  Name = ../refined-set-2016/3zxz/3zxz_pocket.pdb
REMARK  242 active torsions:
REMARK  status: ('A' for Active; 'I' for Inactive)
REMARK    1  A    between atoms: _1  and  _3
REMARK    2  A    between atoms: _3  and  _4
REMARK    3  A    between atoms: _3  and  _6
REMARK    4  A    between atoms: _9  and  _11
REMARK    5  A    between atoms: _11  and  _12
REMARK    6  A    between atoms: _11  and  _14
REMARK    7  A    between atoms: _14  and  _15
REMARK    8  A    between atoms: _18  and  _20
REMARK    9  A    between atoms: _20  and  _21
REMARK   10  A    between atoms: _23  and  _25
REMARK   11  A    between atoms: _25  and  _26
REMARK   12  A    between atoms: _25  and  _28
REMARK   13  A    between atoms: _28  and  _29
REMARK   14  A    between atoms: _29  and  _30
REMARK   15  A    between atoms: _30  and  _31
REMARK   16  A    between atoms: _40  and  _42
REMARK   17  A    between atoms: _42  and  _43
REMARK   18  A    between atoms: _45  and  _47
REMARK   19  A    between atoms: _47  and  _48
REMARK   20  A    between atoms: _47  and  _50
REMARK   21  A    between atoms: _52  and  _54
REMARK   22  A    between atoms: _54  and  _55
REMARK   23  A    between atoms: _54  and  _57
REMARK   24  A    between atoms: _60  and  _62
REMARK   25  A    between atoms: _62  and  _63
REMARK   26  A    between atoms: _62  and  _65
REMARK   27  A    between atoms: _65  and  _66
REMARK   28  A    between atoms: _71  and  _72
REMARK   29  A    between atoms: _74  and  _76
REMARK   30  A    between atoms: _76  and  _77
REMARK   31  A    between atoms: _76  and  _79
REMARK   32  A    between atoms: _79  and  _80
REMARK   33  A    between atoms: _85  and  _87
REMARK   34  A    between atoms: _87  and  _88
REMARK   35  A    between atoms: _90  and  _92
REMARK   36  A    between atoms: _92  and  _93
REMARK   37  A    between atoms: _92  and  _95
REMARK   38  A    between atoms: _95  and  _96
REMARK   39  A    between atoms: _101  and  _103
REMARK   40  A    between atoms: _103  and  _104
REMARK   41  A    between atoms: _103  and  _106
REMARK   42  A    between atoms: _108  and  _110
REMARK   43  A    between atoms: _110  and  _111
REMARK   44  A    between atoms: _114  and  _116
REMARK   45  A    between atoms: _116  and  _117
REMARK   46  A    between atoms: _116  and  _119
REMARK   47  A    between atoms: _122  and  _124
REMARK   48  A    between atoms: _124  and  _125
REMARK   49  A    between atoms: _124  and  _127
REMARK   50  A    between atoms: _127  and  _128
REMARK   51  A    between atoms: _128  and  _129
REMARK   52  A    between atoms: _129  and  _130
REMARK   53  A    between atoms: _130  and  _131
REMARK   54  A    between atoms: _135  and  _137
REMARK   55  A    between atoms: _137  and  _138
REMARK   56  A    between atoms: _137  and  _140
REMARK   57  A    between atoms: _140  and  _141
REMARK   58  A    between atoms: _143  and  _145
REMARK   59  A    between atoms: _145  and  _146
REMARK   60  A    between atoms: _145  and  _148
REMARK   61  A    between atoms: _148  and  _149
REMARK   62  A    between atoms: _149  and  _150
REMARK   63  A    between atoms: _152  and  _154
REMARK   64  A    between atoms: _154  and  _155
REMARK   65  A    between atoms: _154  and  _157
REMARK   66  A    between atoms: _157  and  _158
REMARK   67  A    between atoms: _161  and  _163
REMARK   68  A    between atoms: _163  and  _164
REMARK   69  A    between atoms: _163  and  _166
REMARK   70  A    between atoms: _166  and  _167
REMARK   71  A    between atoms: _169  and  _171
REMARK   72  A    between atoms: _171  and  _172
REMARK   73  A    between atoms: _171  and  _174
REMARK   74  A    between atoms: _177  and  _179
REMARK   75  A    between atoms: _179  and  _180
REMARK   76  A    between atoms: _179  and  _182
REMARK   77  A    between atoms: _185  and  _187
REMARK   78  A    between atoms: _187  and  _188
REMARK   79  A    between atoms: _187  and  _190
REMARK   80  A    between atoms: _190  and  _191
REMARK   81  A    between atoms: _195  and  _196
REMARK   82  A    between atoms: _201  and  _203
REMARK   83  A    between atoms: _203  and  _204
REMARK   84  A    between atoms: _203  and  _206
REMARK   85  A    between atoms: _206  and  _207
REMARK   86  A    between atoms: _212  and  _213
REMARK   87  A    between atoms: _215  and  _217
REMARK   88  A    between atoms: _217  and  _218
REMARK   89  A    between atoms: _217  and  _220
REMARK   90  A    between atoms: _220  and  _221
REMARK   91  A    between atoms: _221  and  _222
REMARK   92  A    between atoms: _224  and  _226
REMARK   93  A    between atoms: _226  and  _227
REMARK   94  A    between atoms: _226  and  _229
REMARK   95  A    between atoms: _229  and  _230
REMARK   96  A    between atoms: _230  and  _231
REMARK   97  A    between atoms: _231  and  _232
REMARK   98  A    between atoms: _232  and  _233
REMARK   99  A    between atoms: _237  and  _239
REMARK  100  A    between atoms: _239  and  _240
REMARK  101  A    between atoms: _239  and  _242
REMARK  102  A    between atoms: _242  and  _243
REMARK  103  A    between atoms: _248  and  _250
REMARK  104  A    between atoms: _250  and  _251
REMARK  105  A    between atoms: _253  and  _255
REMARK  106  A    between atoms: _255  and  _256
REMARK  107  A    between atoms: _255  and  _258
REMARK  108  A    between atoms: _258  and  _259
REMARK  109  A    between atoms: _262  and  _264
REMARK  110  A    between atoms: _264  and  _265
REMARK  111  A    between atoms: _264  and  _267
REMARK  112  A    between atoms: _267  and  _268
REMARK  113  A    between atoms: _271  and  _273
REMARK  114  A    between atoms: _273  and  _274
REMARK  115  A    between atoms: _273  and  _276
REMARK  116  A    between atoms: _276  and  _277
REMARK  117  A    between atoms: _277  and  _278
REMARK  118  A    between atoms: _278  and  _279
REMARK  119  A    between atoms: _288  and  _290
REMARK  120  A    between atoms: _290  and  _291
REMARK  121  A    between atoms: _290  and  _293
REMARK  122  A    between atoms: _293  and  _294
REMARK  123  A    between atoms: _299  and  _301
REMARK  124  A    between atoms: _301  and  _302
REMARK  125  A    between atoms: _301  and  _304
REMARK  126  A    between atoms: _304  and  _305
REMARK  127  A    between atoms: _311  and  _313
REMARK  128  A    between atoms: _313  and  _314
REMARK  129  A    between atoms: _313  and  _316
REMARK  130  A    between atoms: _316  and  _317
REMARK  131  A    between atoms: _317  and  _318
REMARK  132  A    between atoms: _318  and  _319
REMARK  133  A    between atoms: _328  and  _330
REMARK  134  A    between atoms: _330  and  _331
REMARK  135  A    between atoms: _330  and  _333
REMARK  136  A    between atoms: _333  and  _334
REMARK  137  A    between atoms: _339  and  _341
REMARK  138  A    between atoms: _341  and  _342
REMARK  139  A    between atoms: _341  and  _344
REMARK  140  A    between atoms: _344  and  _345
REMARK  141  A    between atoms: _348  and  _350
REMARK  142  A    between atoms: _350  and  _351
REMARK  143  A    between atoms: _354  and  _356
REMARK  144  A    between atoms: _356  and  _357
REMARK  145  A    between atoms: _360  and  _362
REMARK  146  A    between atoms: _362  and  _363
REMARK  147  A    between atoms: _362  and  _365
REMARK  148  A    between atoms: _365  and  _366
REMARK  149  A    between atoms: _366  and  _367
REMARK  150  A    between atoms: _367  and  _368
REMARK  151  A    between atoms: _377  and  _379
REMARK  152  A    between atoms: _379  and  _380
REMARK  153  A    between atoms: _379  and  _382
REMARK  154  A    between atoms: _382  and  _383
REMARK  155  A    between atoms: _388  and  _390
REMARK  156  A    between atoms: _390  and  _391
REMARK  157  A    between atoms: _390  and  _393
REMARK  158  A    between atoms: _395  and  _397
REMARK  159  A    between atoms: _397  and  _398
REMARK  160  A    between atoms: _397  and  _400
REMARK  161  A    between atoms: _400  and  _401
REMARK  162  A    between atoms: _401  and  _402
REMARK  163  A    between atoms: _404  and  _406
REMARK  164  A    between atoms: _406  and  _407
REMARK  165  A    between atoms: _406  and  _409
REMARK  166  A    between atoms: _409  and  _410
REMARK  167  A    between atoms: _413  and  _415
REMARK  168  A    between atoms: _415  and  _416
REMARK  169  A    between atoms: _415  and  _418
REMARK  170  A    between atoms: _418  and  _419
REMARK  171  A    between atoms: _422  and  _424
REMARK  172  A    between atoms: _424  and  _425
REMARK  173  A    between atoms: _424  and  _427
REMARK  174  A    between atoms: _427  and  _428
REMARK  175  A    between atoms: _428  and  _429
REMARK  176  A    between atoms: _429  and  _430
REMARK  177  A    between atoms: _430  and  _431
REMARK  178  A    between atoms: _435  and  _437
REMARK  179  A    between atoms: _437  and  _438
REMARK  180  A    between atoms: _437  and  _440
REMARK  181  A    between atoms: _443  and  _445
REMARK  182  A    between atoms: _445  and  _446
REMARK  183  A    between atoms: _449  and  _451
REMARK  184  A    between atoms: _451  and  _452
REMARK  185  A    between atoms: _451  and  _454
REMARK  186  A    between atoms: _454  and  _455
REMARK  187  A    between atoms: _458  and  _460
REMARK  188  A    between atoms: _460  and  _461
REMARK  189  A    between atoms: _460  and  _463
REMARK  190  A    between atoms: _463  and  _464
REMARK  191  A    between atoms: _470  and  _472
REMARK  192  A    between atoms: _472  and  _473
REMARK  193  A    between atoms: _472  and  _475
REMARK  194  A    between atoms: _475  and  _476
REMARK  195  A    between atoms: _479  and  _481
REMARK  196  A    between atoms: _481  and  _482
REMARK  197  A    between atoms: _485  and  _487
REMARK  198  A    between atoms: _487  and  _488
REMARK  199  A    between atoms: _487  and  _490
REMARK  200  A    between atoms: _490  and  _491
REMARK  201  A    between atoms: _491  and  _492
REMARK  202  A    between atoms: _492  and  _493
REMARK  203  A    between atoms: _502  and  _504
REMARK  204  A    between atoms: _504  and  _505
REMARK  205  A    between atoms: _504  and  _507
REMARK  206  A    between atoms: _507  and  _508
REMARK  207  A    between atoms: _511  and  _513
REMARK  208  A    between atoms: _513  and  _514
REMARK  209  A    between atoms: _513  and  _516
REMARK  210  A    between atoms: _516  and  _517
REMARK  211  A    between atoms: _517  and  _518
REMARK  212  A    between atoms: _520  and  _522
REMARK  213  A    between atoms: _522  and  _523
REMARK  214  A    between atoms: _522  and  _525
REMARK  215  A    between atoms: _525  and  _526
REMARK  216  A    between atoms: _531  and  _532
REMARK  217  A    between atoms: _534  and  _536
REMARK  218  A    between atoms: _536  and  _537
REMARK  219  A    between atoms: _536  and  _539
REMARK  220  A    between atoms: _539  and  _540
REMARK  221  A    between atoms: _543  and  _545
REMARK  222  A    between atoms: _545  and  _546
REMARK  223  A    between atoms: _545  and  _548
REMARK  224  A    between atoms: _548  and  _549
REMARK  225  A    between atoms: _549  and  _550
REMARK  226  A    between atoms: _550  and  _551
REMARK  227  A    between atoms: _551  and  _552
REMARK  228  A    between atoms: _556  and  _558
REMARK  229  A    between atoms: _558  and  _559
REMARK  230  A    between atoms: _558  and  _561
REMARK  231  A    between atoms: _561  and  _562
REMARK  232  A    between atoms: _562  and  _563
REMARK  233  A    between atoms: _566  and  _568
REMARK  234  A    between atoms: _568  and  _569
REMARK  235  A    between atoms: _568  and  _571
REMARK  236  A    between atoms: _571  and  _572
REMARK  237  A    between atoms: _577  and  _578
REMARK  238  A    between atoms: _580  and  _582
REMARK  239  A    between atoms: _582  and  _583
REMARK  240  A    between atoms: _582  and  _585
REMARK  241  A    between atoms: _585  and  _586
REMARK  242  A    between atoms: _591  and  _592
REMARK                            x       y       z     vdW  Elec       q    Type
REMARK                         _______ _______ _______ _____ _____    ______ ____
ROOT
ATOM      1  CA  VAL A   4      21.396  93.376   6.185  0.00  0.00    +0.149 C 
ENDROOT
BRANCH   1   2
ATOM      2  C   VAL A   4      20.031  92.944   5.659  0.00  0.00    +0.241 C 
ATOM      3  N   LYS A   5      19.130  92.608   6.574  0.00  0.00    -0.297 N 
ATOM      4  H   LYS A   5      19.367  92.707   7.582  0.00  0.00    +0.150 HD
ATOM      5  O   VAL A   4      19.801  92.917   4.451  0.00  0.00    -0.273 OA
BRANCH   3   6
ATOM      6  CA  LYS A   5      17.813  92.103   6.197  0.00  0.00    +0.149 C 
BRANCH   6   7
ATOM      7  C   LYS A   5      16.790  93.228   6.225  0.00  0.00    +0.241 C 
ATOM      8  O   LYS A   5      16.542  93.831   7.269  0.00  0.00    -0.273 OA
ATOM      9  N   SER A   6      16.199  93.496   5.067  0.00  0.00    -0.296 N 
ATOM     10  H   SER A   6      16.492  92.966   4.222  0.00  0.00    +0.150 HD
BRANCH   9  11
ATOM     11  CA  SER A   6      15.157  94.502   4.935  0.00  0.00    +0.166 C 
BRANCH  11  12
ATOM     12  CB  SER A   6      13.797  93.984   5.406  0.00  0.00    +0.229 C 
ATOM     13  OG  SER A   6      13.476  92.798   5.254  0.00  0.00    -0.286 OA
ENDBRANCH  11  12
BRANCH  11  14
ATOM     14  C   SER A   6      15.051  94.949   3.477  0.00  0.00    +0.165 C 
BRANCH  14  15
ATOM     15  O   SER A   6      13.948  95.818   3.293  0.00  0.00    -0.380 OA
ATOM     16  H   SER A   6      13.901  96.093   2.343  0.00  0.00    +0.211 HD
ENDBRANCH  14  15
ENDBRANCH  11  14
ENDBRANCH   9  11
ENDBRANCH   6   7
BRANCH   6  17
ATOM     17  CB  LYS A   5      17.377  90.987   7.154  0.00  0.00    +0.029 C 
BRANCH  17  18
ATOM     18  CG  LYS A   5      15.942  90.489   6.944  0.00  0.00    +0.000 C 
BRANCH  18  19
ATOM     19  CD  LYS A   5      15.734  89.960   5.528  0.00  0.00    -0.024 C 
BRANCH  19  20
ATOM     20  CE  LYS A   5      14.513  89.055   5.441  0.00  0.00    -0.086 C 
BRANCH  20  21
ATOM     21  NZ  LYS A   5      13.271  89.747   5.876  0.00  0.00    +0.380 N 
ATOM     22  HZ1 LYS A   5      13.376  90.056   6.863  0.00  0.00    -0.089 HD
ATOM     23  HZ2 LYS A   5      12.466  89.093   5.800  0.00  0.00    -0.089 HD
ATOM     24  HZ3 LYS A   5      13.105  90.574   5.268  0.00  0.00    -0.089 HD
ENDBRANCH  20  21
ENDBRANCH  19  20
ENDBRANCH  18  19
ENDBRANCH  17  18
ENDBRANCH   6  17
ENDBRANCH   3   6
ENDBRANCH   1   2
BRANCH   1  27
ATOM     25  C   ALA A   3      22.997  91.634   6.718  0.00  0.00    +0.241 C 
ATOM     26  O   ALA A   3      22.643  91.611   7.899  0.00  0.00    -0.273 OA
ATOM     27  N   VAL A   4      22.427  92.420   5.812  0.00  0.00    -0.297 N 
ATOM     28  H   VAL A   4      22.723  92.351   4.817  0.00  0.00    +0.150 HD
BRANCH  25  29
ATOM     29  CA  ALA A   3      24.131  90.740   6.226  0.00  0.00    +0.149 C 
ATOM     30  CB  ALA A   3      23.695  89.282   6.248  0.00  0.00    +0.031 C 
BRANCH  29  32
ATOM     31  C   CYS A   2      26.389  91.540   6.659  0.00  0.00    +0.242 C 
ATOM     32  N   ALA A   3      25.292  90.923   7.083  0.00  0.00    -0.297 N 
ATOM     33  H   ALA A   3      25.262  90.560   8.057  0.00  0.00    +0.150 HD
ATOM     34  O   CYS A   2      26.542  91.916   5.496  0.00  0.00    -0.273 OA
BRANCH  31  35
ATOM     35  CA  CYS A   2      27.478  91.751   7.704  0.00  0.00    +0.160 C 
BRANCH  35  38
ATOM     36  C   HIS A   1      29.890  91.795   7.576  0.00  0.00    +0.239 C 
ATOM     37  O   HIS A   1      29.977  90.981   8.493  0.00  0.00    -0.274 OA
ATOM     38  N   CYS A   2      28.722  92.236   7.125  0.00  0.00    -0.296 N 
ATOM     39  H   CYS A   2      28.696  92.932   6.353  0.00  0.00    +0.150 HD
BRANCH  36  40
ATOM     40  CA  HIS A   1      31.147  92.346   6.904  0.00  0.00    +0.151 C 
BRANCH  40  41
ATOM     41  N   HIS A   1      32.049  92.848   7.936  0.00  0.00    -0.238 NA
ATOM     42  H   HIS A   1      32.952  92.359   8.099  0.00  0.00    +0.142 HD
ENDBRANCH  40  41
BRANCH  40  43
ATOM     43  CB  HIS A   1      31.841  91.234   6.110  0.00  0.00    +0.074 C 
BRANCH  43  44
ATOM     44  CG  HIS A   1      31.137  90.855   4.845  0.00  0.00    +0.082 A 
ATOM     45  CD2 HIS A   1      29.859  91.049   4.439  0.00  0.00    +0.115 A 
ATOM     46  NE2 HIS A   1      29.745  90.502   3.183  0.00  0.00    -0.221 NA
ATOM     47  CE1 HIS A   1      30.910  89.990   2.830  0.00  0.00    +0.199 A 
ATOM     48  ND1 HIS A   1      31.768  90.189   3.815  0.00  0.00    -0.227 NA
ENDBRANCH  43  44
ENDBRANCH  40  43
ENDBRANCH  36  40
ENDBRANCH  35  38
BRANCH  35  49
ATOM     49  CB  CYS A   2      26.982  92.723   8.777  0.00  0.00    +0.098 C 
ATOM     50  SG  CYS A   2      26.580  94.383   8.168  0.00  0.00    -0.080 S 
ENDBRANCH  35  49
ENDBRANCH  31  35
ENDBRANCH  29  32
ENDBRANCH  25  29
ENDBRANCH   1  27
BRANCH   1  51
ATOM     51  CB  VAL A   4      21.721  94.780   5.634  0.00  0.00    +0.027 C 
ATOM     52  CG2 VAL A   4      23.079  95.240   6.161  0.00  0.00    +0.002 C 
ATOM     53  CG1 VAL A   4      20.631  95.764   6.038  0.00  0.00    +0.002 C 
ENDBRANCH   1  51
TORSDOF 23
REMARK  Name = ../refined-set-2016/3zxz/3zxz_pocket.pdb
REMARK  242 active torsions:
REMARK  status: ('A' for Active; 'I' for Inactive)
REMARK    1  A    between atoms: _1  and  _3
REMARK    2  A    between atoms: _3  and  _4
REMARK    3  A    between atoms: _3  and  _6
REMARK    4  A    between atoms: _9  and  _11
REMARK    5  A    between atoms: _11  and  _12
REMARK    6  A    between atoms: _11  and  _14
REMARK    7  A    between atoms: _14  and  _15
REMARK    8  A    between atoms: _18  and  _20
REMARK    9  A    between atoms: _20  and  _21
REMARK   10  A    between atoms: _23  and  _25
REMARK   11  A    between atoms: _25  and  _26
REMARK   12  A    between atoms: _25  and  _28
REMARK   13  A    between atoms: _28  and  _29
REMARK   14  A    between atoms: _29  and  _30
REMARK   15  A    between atoms: _30  and  _31
REMARK   16  A    between atoms: _40  and  _42
REMARK   17  A    between atoms: _42  and  _43
REMARK   18  A    between atoms: _45  and  _47
REMARK   19  A    between atoms: _47  and  _48
REMARK   20  A    between atoms: _47  and  _50
REMARK   21  A    between atoms: _52  and  _54
REMARK   22  A    between atoms: _54  and  _55
REMARK   23  A    between atoms: _54  and  _57
REMARK   24  A    between atoms: _60  and  _62
REMARK   25  A    between atoms: _62  and  _63
REMARK   26  A    between atoms: _62  and  _65
REMARK   27  A    between atoms: _65  and  _66
REMARK   28  A    between atoms: _71  and  _72
REMARK   29  A    between atoms: _74  and  _76
REMARK   30  A    between atoms: _76  and  _77
REMARK   31  A    between atoms: _76  and  _79
REMARK   32  A    between atoms: _79  and  _80
REMARK   33  A    between atoms: _85  and  _87
REMARK   34  A    between atoms: _87  and  _88
REMARK   35  A    between atoms: _90  and  _92
REMARK   36  A    between atoms: _92  and  _93
REMARK   37  A    between atoms: _92  and  _95
REMARK   38  A    between atoms: _95  and  _96
REMARK   39  A    between atoms: _101  and  _103
REMARK   40  A    between atoms: _103  and  _104
REMARK   41  A    between atoms: _103  and  _106
REMARK   42  A    between atoms: _108  and  _110
REMARK   43  A    between atoms: _110  and  _111
REMARK   44  A    between atoms: _114  and  _116
REMARK   45  A    between atoms: _116  and  _117
REMARK   46  A    between atoms: _116  and  _119
REMARK   47  A    between atoms: _122  and  _124
REMARK   48  A    between atoms: _124  and  _125
REMARK   49  A    between atoms: _124  and  _127
REMARK   50  A    between atoms: _127  and  _128
REMARK   51  A    between atoms: _128  and  _129
REMARK   52  A    between atoms: _129  and  _130
REMARK   53  A    between atoms: _130  and  _131
REMARK   54  A    between atoms: _135  and  _137
REMARK   55  A    between atoms: _137  and  _138
REMARK   56  A    between atoms: _137  and  _140
REMARK   57  A    between atoms: _140  and  _141
REMARK   58  A    between atoms: _143  and  _145
REMARK   59  A    between atoms: _145  and  _146
REMARK   60  A    between atoms: _145  and  _148
REMARK   61  A    between atoms: _148  and  _149
REMARK   62  A    between atoms: _149  and  _150
REMARK   63  A    between atoms: _152  and  _154
REMARK   64  A    between atoms: _154  and  _155
REMARK   65  A    between atoms: _154  and  _157
REMARK   66  A    between atoms: _157  and  _158
REMARK   67  A    between atoms: _161  and  _163
REMARK   68  A    between atoms: _163  and  _164
REMARK   69  A    between atoms: _163  and  _166
REMARK   70  A    between atoms: _166  and  _167
REMARK   71  A    between atoms: _169  and  _171
REMARK   72  A    between atoms: _171  and  _172
REMARK   73  A    between atoms: _171  and  _174
REMARK   74  A    between atoms: _177  and  _179
REMARK   75  A    between atoms: _179  and  _180
REMARK   76  A    between atoms: _179  and  _182
REMARK   77  A    between atoms: _185  and  _187
REMARK   78  A    between atoms: _187  and  _188
REMARK   79  A    between atoms: _187  and  _190
REMARK   80  A    between atoms: _190  and  _191
REMARK   81  A    between atoms: _195  and  _196
REMARK   82  A    between atoms: _201  and  _203
REMARK   83  A    between atoms: _203  and  _204
REMARK   84  A    between atoms: _203  and  _206
REMARK   85  A    between atoms: _206  and  _207
REMARK   86  A    between atoms: _212  and  _213
REMARK   87  A    between atoms: _215  and  _217
REMARK   88  A    between atoms: _217  and  _218
REMARK   89  A    between atoms: _217  and  _220
REMARK   90  A    between atoms: _220  and  _221
REMARK   91  A    between atoms: _221  and  _222
REMARK   92  A    between atoms: _224  and  _226
REMARK   93  A    between atoms: _226  and  _227
REMARK   94  A    between atoms: _226  and  _229
REMARK   95  A    between atoms: _229  and  _230
REMARK   96  A    between atoms: _230  and  _231
REMARK   97  A    between atoms: _231  and  _232
REMARK   98  A    between atoms: _232  and  _233
REMARK   99  A    between atoms: _237  and  _239
REMARK  100  A    between atoms: _239  and  _240
REMARK  101  A    between atoms: _239  and  _242
REMARK  102  A    between atoms: _242  and  _243
REMARK  103  A    between atoms: _248  and  _250
REMARK  104  A    between atoms: _250  and  _251
REMARK  105  A    between atoms: _253  and  _255
REMARK  106  A    between atoms: _255  and  _256
REMARK  107  A    between atoms: _255  and  _258
REMARK  108  A    between atoms: _258  and  _259
REMARK  109  A    between atoms: _262  and  _264
REMARK  110  A    between atoms: _264  and  _265
REMARK  111  A    between atoms: _264  and  _267
REMARK  112  A    between atoms: _267  and  _268
REMARK  113  A    between atoms: _271  and  _273
REMARK  114  A    between atoms: _273  and  _274
REMARK  115  A    between atoms: _273  and  _276
REMARK  116  A    between atoms: _276  and  _277
REMARK  117  A    between atoms: _277  and  _278
REMARK  118  A    between atoms: _278  and  _279
REMARK  119  A    between atoms: _288  and  _290
REMARK  120  A    between atoms: _290  and  _291
REMARK  121  A    between atoms: _290  and  _293
REMARK  122  A    between atoms: _293  and  _294
REMARK  123  A    between atoms: _299  and  _301
REMARK  124  A    between atoms: _301  and  _302
REMARK  125  A    between atoms: _301  and  _304
REMARK  126  A    between atoms: _304  and  _305
REMARK  127  A    between atoms: _311  and  _313
REMARK  128  A    between atoms: _313  and  _314
REMARK  129  A    between atoms: _313  and  _316
REMARK  130  A    between atoms: _316  and  _317
REMARK  131  A    between atoms: _317  and  _318
REMARK  132  A    between atoms: _318  and  _319
REMARK  133  A    between atoms: _328  and  _330
REMARK  134  A    between atoms: _330  and  _331
REMARK  135  A    between atoms: _330  and  _333
REMARK  136  A    between atoms: _333  and  _334
REMARK  137  A    between atoms: _339  and  _341
REMARK  138  A    between atoms: _341  and  _342
REMARK  139  A    between atoms: _341  and  _344
REMARK  140  A    between atoms: _344  and  _345
REMARK  141  A    between atoms: _348  and  _350
REMARK  142  A    between atoms: _350  and  _351
REMARK  143  A    between atoms: _354  and  _356
REMARK  144  A    between atoms: _356  and  _357
REMARK  145  A    between atoms: _360  and  _362
REMARK  146  A    between atoms: _362  and  _363
REMARK  147  A    between atoms: _362  and  _365
REMARK  148  A    between atoms: _365  and  _366
REMARK  149  A    between atoms: _366  and  _367
REMARK  150  A    between atoms: _367  and  _368
REMARK  151  A    between atoms: _377  and  _379
REMARK  152  A    between atoms: _379  and  _380
REMARK  153  A    between atoms: _379  and  _382
REMARK  154  A    between atoms: _382  and  _383
REMARK  155  A    between atoms: _388  and  _390
REMARK  156  A    between atoms: _390  and  _391
REMARK  157  A    between atoms: _390  and  _393
REMARK  158  A    between atoms: _395  and  _397
REMARK  159  A    between atoms: _397  and  _398
REMARK  160  A    between atoms: _397  and  _400
REMARK  161  A    between atoms: _400  and  _401
REMARK  162  A    between atoms: _401  and  _402
REMARK  163  A    between atoms: _404  and  _406
REMARK  164  A    between atoms: _406  and  _407
REMARK  165  A    between atoms: _406  and  _409
REMARK  166  A    between atoms: _409  and  _410
REMARK  167  A    between atoms: _413  and  _415
REMARK  168  A    between atoms: _415  and  _416
REMARK  169  A    between atoms: _415  and  _418
REMARK  170  A    between atoms: _418  and  _419
REMARK  171  A    between atoms: _422  and  _424
REMARK  172  A    between atoms: _424  and  _425
REMARK  173  A    between atoms: _424  and  _427
REMARK  174  A    between atoms: _427  and  _428
REMARK  175  A    between atoms: _428  and  _429
REMARK  176  A    between atoms: _429  and  _430
REMARK  177  A    between atoms: _430  and  _431
REMARK  178  A    between atoms: _435  and  _437
REMARK  179  A    between atoms: _437  and  _438
REMARK  180  A    between atoms: _437  and  _440
REMARK  181  A    between atoms: _443  and  _445
REMARK  182  A    between atoms: _445  and  _446
REMARK  183  A    between atoms: _449  and  _451
REMARK  184  A    between atoms: _451  and  _452
REMARK  185  A    between atoms: _451  and  _454
REMARK  186  A    between atoms: _454  and  _455
REMARK  187  A    between atoms: _458  and  _460
REMARK  188  A    between atoms: _460  and  _461
REMARK  189  A    between atoms: _460  and  _463
REMARK  190  A    between atoms: _463  and  _464
REMARK  191  A    between atoms: _470  and  _472
REMARK  192  A    between atoms: _472  and  _473
REMARK  193  A    between atoms: _472  and  _475
REMARK  194  A    between atoms: _475  and  _476
REMARK  195  A    between atoms: _479  and  _481
REMARK  196  A    between atoms: _481  and  _482
REMARK  197  A    between atoms: _485  and  _487
REMARK  198  A    between atoms: _487  and  _488
REMARK  199  A    between atoms: _487  and  _490
REMARK  200  A    between atoms: _490  and  _491
REMARK  201  A    between atoms: _491  and  _492
REMARK  202  A    between atoms: _492  and  _493
REMARK  203  A    between atoms: _502  and  _504
REMARK  204  A    between atoms: _504  and  _505
REMARK  205  A    between atoms: _504  and  _507
REMARK  206  A    between atoms: _507  and  _508
REMARK  207  A    between atoms: _511  and  _513
REMARK  208  A    between atoms: _513  and  _514
REMARK  209  A    between atoms: _513  and  _516
REMARK  210  A    between atoms: _516  and  _517
REMARK  211  A    between atoms: _517  and  _518
REMARK  212  A    between atoms: _520  and  _522
REMARK  213  A    between atoms: _522  and  _523
REMARK  214  A    between atoms: _522  and  _525
REMARK  215  A    between atoms: _525  and  _526
REMARK  216  A    between atoms: _531  and  _532
REMARK  217  A    between atoms: _534  and  _536
REMARK  218  A    between atoms: _536  and  _537
REMARK  219  A    between atoms: _536  and  _539
REMARK  220  A    between atoms: _539  and  _540
REMARK  221  A    between atoms: _543  and  _545
REMARK  222  A    between atoms: _545  and  _546
REMARK  223  A    between atoms: _545  and  _548
REMARK  224  A    between atoms: _548  and  _549
REMARK  225  A    between atoms: _549  and  _550
REMARK  226  A    between atoms: _550  and  _551
REMARK  227  A    between atoms: _551  and  _552
REMARK  228  A    between atoms: _556  and  _558
REMARK  229  A    between atoms: _558  and  _559
REMARK  230  A    between atoms: _558  and  _561
REMARK  231  A    between atoms: _561  and  _562
REMARK  232  A    between atoms: _562  and  _563
REMARK  233  A    between atoms: _566  and  _568
REMARK  234  A    between atoms: _568  and  _569
REMARK  235  A    between atoms: _568  and  _571
REMARK  236  A    between atoms: _571  and  _572
REMARK  237  A    between atoms: _577  and  _578
REMARK  238  A    between atoms: _580  and  _582
REMARK  239  A    between atoms: _582  and  _583
REMARK  240  A    between atoms: _582  and  _585
REMARK  241  A    between atoms: _585  and  _586
REMARK  242  A    between atoms: _591  and  _592
REMARK                            x       y       z     vdW  Elec       q    Type
REMARK                         _______ _______ _______ _____ _____    ______ ____
ROOT
ATOM      1  CA  MET A   1      16.744  87.079  19.815  0.00  0.00    +0.134 C 
ENDROOT
BRANCH   1   2
ATOM      2  N   MET A   1      15.547  87.543  20.502  0.00  0.00    -0.239 NA
ATOM      3  H   MET A   1      14.741  87.870  19.932  0.00  0.00    +0.142 HD
ENDBRANCH   1   2
BRANCH   1   4
ATOM      4  C   MET A   1      18.020  87.707  20.388  0.00  0.00    +0.224 C 
ATOM      5  O   MET A   1      19.083  87.081  20.391  0.00  0.00    -0.287 OA
ENDBRANCH   1   4
BRANCH   1   6
ATOM      6  CB  MET A   1      16.612  87.419  18.332  0.00  0.00    +0.037 C 
BRANCH   6   7
ATOM      7  CG  MET A   1      17.763  87.011  17.456  0.00  0.00    +0.059 C 
BRANCH   7   8
ATOM      8  SD  MET A   1      17.461  87.622  15.784  0.00  0.00    -0.139 S 
ATOM      9  CE  MET A   1      18.606  86.623  14.859  0.00  0.00    +0.069 C 
ENDBRANCH   7   8
ENDBRANCH   6   7
ENDBRANCH   1   6
TORSDOF 5
REMARK  Name = ../refined-set-2016/3zxz/3zxz_pocket.pdb
REMARK  242 active torsions:
REMARK  status: ('A' for Active; 'I' for Inactive)
REMARK    1  A    between atoms: _1  and  _3
REMARK    2  A    between atoms: _3  and  _4
REMARK    3  A    between atoms: _3  and  _6
REMARK    4  A    between atoms: _9  and  _11
REMARK    5  A    between atoms: _11  and  _12
REMARK    6  A    between atoms: _11  and  _14
REMARK    7  A    between atoms: _14  and  _15
REMARK    8  A    between atoms: _18  and  _20
REMARK    9  A    between atoms: _20  and  _21
REMARK   10  A    between atoms: _23  and  _25
REMARK   11  A    between atoms: _25  and  _26
REMARK   12  A    between atoms: _25  and  _28
REMARK   13  A    between atoms: _28  and  _29
REMARK   14  A    between atoms: _29  and  _30
REMARK   15  A    between atoms: _30  and  _31
REMARK   16  A    between atoms: _40  and  _42
REMARK   17  A    between atoms: _42  and  _43
REMARK   18  A    between atoms: _45  and  _47
REMARK   19  A    between atoms: _47  and  _48
REMARK   20  A    between atoms: _47  and  _50
REMARK   21  A    between atoms: _52  and  _54
REMARK   22  A    between atoms: _54  and  _55
REMARK   23  A    between atoms: _54  and  _57
REMARK   24  A    between atoms: _60  and  _62
REMARK   25  A    between atoms: _62  and  _63
REMARK   26  A    between atoms: _62  and  _65
REMARK   27  A    between atoms: _65  and  _66
REMARK   28  A    between atoms: _71  and  _72
REMARK   29  A    between atoms: _74  and  _76
REMARK   30  A    between atoms: _76  and  _77
REMARK   31  A    between atoms: _76  and  _79
REMARK   32  A    between atoms: _79  and  _80
REMARK   33  A    between atoms: _85  and  _87
REMARK   34  A    between atoms: _87  and  _88
REMARK   35  A    between atoms: _90  and  _92
REMARK   36  A    between atoms: _92  and  _93
REMARK   37  A    between atoms: _92  and  _95
REMARK   38  A    between atoms: _95  and  _96
REMARK   39  A    between atoms: _101  and  _103
REMARK   40  A    between atoms: _103  and  _104
REMARK   41  A    between atoms: _103  and  _106
REMARK   42  A    between atoms: _108  and  _110
REMARK   43  A    between atoms: _110  and  _111
REMARK   44  A    between atoms: _114  and  _116
REMARK   45  A    between atoms: _116  and  _117
REMARK   46  A    between atoms: _116  and  _119
REMARK   47  A    between atoms: _122  and  _124
REMARK   48  A    between atoms: _124  and  _125
REMARK   49  A    between atoms: _124  and  _127
REMARK   50  A    between atoms: _127  and  _128
REMARK   51  A    between atoms: _128  and  _129
REMARK   52  A    between atoms: _129  and  _130
REMARK   53  A    between atoms: _130  and  _131
REMARK   54  A    between atoms: _135  and  _137
REMARK   55  A    between atoms: _137  and  _138
REMARK   56  A    between atoms: _137  and  _140
REMARK   57  A    between atoms: _140  and  _141
REMARK   58  A    between atoms: _143  and  _145
REMARK   59  A    between atoms: _145  and  _146
REMARK   60  A    between atoms: _145  and  _148
REMARK   61  A    between atoms: _148  and  _149
REMARK   62  A    between atoms: _149  and  _150
REMARK   63  A    between atoms: _152  and  _154
REMARK   64  A    between atoms: _154  and  _155
REMARK   65  A    between atoms: _154  and  _157
REMARK   66  A    between atoms: _157  and  _158
REMARK   67  A    between atoms: _161  and  _163
REMARK   68  A    between atoms: _163  and  _164
REMARK   69  A    between atoms: _163  and  _166
REMARK   70  A    between atoms: _166  and  _167
REMARK   71  A    between atoms: _169  and  _171
REMARK   72  A    between atoms: _171  and  _172
REMARK   73  A    between atoms: _171  and  _174
REMARK   74  A    between atoms: _177  and  _179
REMARK   75  A    between atoms: _179  and  _180
REMARK   76  A    between atoms: _179  and  _182
REMARK   77  A    between atoms: _185  and  _187
REMARK   78  A    between atoms: _187  and  _188
REMARK   79  A    between atoms: _187  and  _190
REMARK   80  A    between atoms: _190  and  _191
REMARK   81  A    between atoms: _195  and  _196
REMARK   82  A    between atoms: _201  and  _203
REMARK   83  A    between atoms: _203  and  _204
REMARK   84  A    between atoms: _203  and  _206
REMARK   85  A    between atoms: _206  and  _207
REMARK   86  A    between atoms: _212  and  _213
REMARK   87  A    between atoms: _215  and  _217
REMARK   88  A    between atoms: _217  and  _218
REMARK   89  A    between atoms: _217  and  _220
REMARK   90  A    between atoms: _220  and  _221
REMARK   91  A    between atoms: _221  and  _222
REMARK   92  A    between atoms: _224  and  _226
REMARK   93  A    between atoms: _226  and  _227
REMARK   94  A    between atoms: _226  and  _229
REMARK   95  A    between atoms: _229  and  _230
REMARK   96  A    between atoms: _230  and  _231
REMARK   97  A    between atoms: _231  and  _232
REMARK   98  A    between atoms: _232  and  _233
REMARK   99  A    between atoms: _237  and  _239
REMARK  100  A    between atoms: _239  and  _240
REMARK  101  A    between atoms: _239  and  _242
REMARK  102  A    between atoms: _242  and  _243
REMARK  103  A    between atoms: _248  and  _250
REMARK  104  A    between atoms: _250  and  _251
REMARK  105  A    between atoms: _253  and  _255
REMARK  106  A    between atoms: _255  and  _256
REMARK  107  A    between atoms: _255  and  _258
REMARK  108  A    between atoms: _258  and  _259
REMARK  109  A    between atoms: _262  and  _264
REMARK  110  A    between atoms: _264  and  _265
REMARK  111  A    between atoms: _264  and  _267
REMARK  112  A    between atoms: _267  and  _268
REMARK  113  A    between atoms: _271  and  _273
REMARK  114  A    between atoms: _273  and  _274
REMARK  115  A    between atoms: _273  and  _276
REMARK  116  A    between atoms: _276  and  _277
REMARK  117  A    between atoms: _277  and  _278
REMARK  118  A    between atoms: _278  and  _279
REMARK  119  A    between atoms: _288  and  _290
REMARK  120  A    between atoms: _290  and  _291
REMARK  121  A    between atoms: _290  and  _293
REMARK  122  A    between atoms: _293  and  _294
REMARK  123  A    between atoms: _299  and  _301
REMARK  124  A    between atoms: _301  and  _302
REMARK  125  A    between atoms: _301  and  _304
REMARK  126  A    between atoms: _304  and  _305
REMARK  127  A    between atoms: _311  and  _313
REMARK  128  A    between atoms: _313  and  _314
REMARK  129  A    between atoms: _313  and  _316
REMARK  130  A    between atoms: _316  and  _317
REMARK  131  A    between atoms: _317  and  _318
REMARK  132  A    between atoms: _318  and  _319
REMARK  133  A    between atoms: _328  and  _330
REMARK  134  A    between atoms: _330  and  _331
REMARK  135  A    between atoms: _330  and  _333
REMARK  136  A    between atoms: _333  and  _334
REMARK  137  A    between atoms: _339  and  _341
REMARK  138  A    between atoms: _341  and  _342
REMARK  139  A    between atoms: _341  and  _344
REMARK  140  A    between atoms: _344  and  _345
REMARK  141  A    between atoms: _348  and  _350
REMARK  142  A    between atoms: _350  and  _351
REMARK  143  A    between atoms: _354  and  _356
REMARK  144  A    between atoms: _356  and  _357
REMARK  145  A    between atoms: _360  and  _362
REMARK  146  A    between atoms: _362  and  _363
REMARK  147  A    between atoms: _362  and  _365
REMARK  148  A    between atoms: _365  and  _366
REMARK  149  A    between atoms: _366  and  _367
REMARK  150  A    between atoms: _367  and  _368
REMARK  151  A    between atoms: _377  and  _379
REMARK  152  A    between atoms: _379  and  _380
REMARK  153  A    between atoms: _379  and  _382
REMARK  154  A    between atoms: _382  and  _383
REMARK  155  A    between atoms: _388  and  _390
REMARK  156  A    between atoms: _390  and  _391
REMARK  157  A    between atoms: _390  and  _393
REMARK  158  A    between atoms: _395  and  _397
REMARK  159  A    between atoms: _397  and  _398
REMARK  160  A    between atoms: _397  and  _400
REMARK  161  A    between atoms: _400  and  _401
REMARK  162  A    between atoms: _401  and  _402
REMARK  163  A    between atoms: _404  and  _406
REMARK  164  A    between atoms: _406  and  _407
REMARK  165  A    between atoms: _406  and  _409
REMARK  166  A    between atoms: _409  and  _410
REMARK  167  A    between atoms: _413  and  _415
REMARK  168  A    between atoms: _415  and  _416
REMARK  169  A    between atoms: _415  and  _418
REMARK  170  A    between atoms: _418  and  _419
REMARK  171  A    between atoms: _422  and  _424
REMARK  172  A    between atoms: _424  and  _425
REMARK  173  A    between atoms: _424  and  _427
REMARK  174  A    between atoms: _427  and  _428
REMARK  175  A    between atoms: _428  and  _429
REMARK  176  A    between atoms: _429  and  _430
REMARK  177  A    between atoms: _430  and  _431
REMARK  178  A    between atoms: _435  and  _437
REMARK  179  A    between atoms: _437  and  _438
REMARK  180  A    between atoms: _437  and  _440
REMARK  181  A    between atoms: _443  and  _445
REMARK  182  A    between atoms: _445  and  _446
REMARK  183  A    between atoms: _449  and  _451
REMARK  184  A    between atoms: _451  and  _452
REMARK  185  A    between atoms: _451  and  _454
REMARK  186  A    between atoms: _454  and  _455
REMARK  187  A    between atoms: _458  and  _460
REMARK  188  A    between atoms: _460  and  _461
REMARK  189  A    between atoms: _460  and  _463
REMARK  190  A    between atoms: _463  and  _464
REMARK  191  A    between atoms: _470  and  _472
REMARK  192  A    between atoms: _472  and  _473
REMARK  193  A    between atoms: _472  and  _475
REMARK  194  A    between atoms: _475  and  _476
REMARK  195  A    between atoms: _479  and  _481
REMARK  196  A    between atoms: _481  and  _482
REMARK  197  A    between atoms: _485  and  _487
REMARK  198  A    between atoms: _487  and  _488
REMARK  199  A    between atoms: _487  and  _490
REMARK  200  A    between atoms: _490  and  _491
REMARK  201  A    between atoms: _491  and  _492
REMARK  202  A    between atoms: _492  and  _493
REMARK  203  A    between atoms: _502  and  _504
REMARK  204  A    between atoms: _504  and  _505
REMARK  205  A    between atoms: _504  and  _507
REMARK  206  A    between atoms: _507  and  _508
REMARK  207  A    between atoms: _511  and  _513
REMARK  208  A    between atoms: _513  and  _514
REMARK  209  A    between atoms: _513  and  _516
REMARK  210  A    between atoms: _516  and  _517
REMARK  211  A    between atoms: _517  and  _518
REMARK  212  A    between atoms: _520  and  _522
REMARK  213  A    between atoms: _522  and  _523
REMARK  214  A    between atoms: _522  and  _525
REMARK  215  A    between atoms: _525  and  _526
REMARK  216  A    between atoms: _531  and  _532
REMARK  217  A    between atoms: _534  and  _536
REMARK  218  A    between atoms: _536  and  _537
REMARK  219  A    between atoms: _536  and  _539
REMARK  220  A    between atoms: _539  and  _540
REMARK  221  A    between atoms: _543  and  _545
REMARK  222  A    between atoms: _545  and  _546
REMARK  223  A    between atoms: _545  and  _548
REMARK  224  A    between atoms: _548  and  _549
REMARK  225  A    between atoms: _549  and  _550
REMARK  226  A    between atoms: _550  and  _551
REMARK  227  A    between atoms: _551  and  _552
REMARK  228  A    between atoms: _556  and  _558
REMARK  229  A    between atoms: _558  and  _559
REMARK  230  A    between atoms: _558  and  _561
REMARK  231  A    between atoms: _561  and  _562
REMARK  232  A    between atoms: _562  and  _563
REMARK  233  A    between atoms: _566  and  _568
REMARK  234  A    between atoms: _568  and  _569
REMARK  235  A    between atoms: _568  and  _571
REMARK  236  A    between atoms: _571  and  _572
REMARK  237  A    between atoms: _577  and  _578
REMARK  238  A    between atoms: _580  and  _582
REMARK  239  A    between atoms: _582  and  _583
REMARK  240  A    between atoms: _582  and  _585
REMARK  241  A    between atoms: _585  and  _586
REMARK  242  A    between atoms: _591  and  _592
REMARK                            x       y       z     vdW  Elec       q    Type
REMARK                         _______ _______ _______ _____ _____    ______ ____
ROOT
ATOM      1  C   LEU A   1      22.143  84.006  15.602  0.00  0.00    +0.238 C 
ATOM      2  O   LEU A   1      21.111  84.102  16.267  0.00  0.00    -0.274 OA
ATOM      3  N   SER A   2      23.132  84.890  15.674  0.00  0.00    -0.296 N 
ATOM      4  H   SER A   2      23.975  84.766  15.078  0.00  0.00    +0.150 HD
ENDROOT
BRANCH   1   5
ATOM      5  CA  LEU A   1      22.340  82.851  14.630  0.00  0.00    +0.145 C 
BRANCH   5   6
ATOM      6  N   LEU A   1      22.036  81.583  15.288  0.00  0.00    -0.238 NA
ATOM      7  H   LEU A   1      21.273  80.982  14.917  0.00  0.00    +0.142 HD
ENDBRANCH   5   6
BRANCH   5   8
ATOM      8  CB  LEU A   1      21.436  83.068  13.414  0.00  0.00    +0.026 C 
BRANCH   8   9
ATOM      9  CG  LEU A   1      21.809  84.296  12.572  0.00  0.00    +0.002 C 
ATOM     10  CD2 LEU A   1      23.100  84.008  11.823  0.00  0.00    +0.000 C 
ATOM     11  CD1 LEU A   1      20.689  84.630  11.596  0.00  0.00    +0.000 C 
ENDBRANCH   8   9
ENDBRANCH   5   8
ENDBRANCH   1   5
BRANCH   3  12
ATOM     12  CA  SER A   2      23.052  86.029  16.576  0.00  0.00    +0.166 C 
BRANCH  12  13
ATOM     13  CB  SER A   2      22.521  87.269  15.863  0.00  0.00    +0.229 C 
ATOM     14  OG  SER A   2      22.454  87.317  14.636  0.00  0.00    -0.286 OA
ENDBRANCH  12  13
BRANCH  12  15
ATOM     15  C   SER A   2      24.429  86.325  17.182  0.00  0.00    +0.165 C 
BRANCH  15  16
ATOM     16  O   SER A   2      25.375  86.637  16.177  0.00  0.00    -0.380 OA
ATOM     17  H   SER A   2      25.461  85.870  15.557  0.00  0.00    +0.211 HD
ENDBRANCH  15  16
ENDBRANCH  12  15
ENDBRANCH   3  12
TORSDOF 8
REMARK  Name = ../refined-set-2016/3zxz/3zxz_pocket.pdb
REMARK  242 active torsions:
REMARK  status: ('A' for Active; 'I' for Inactive)
REMARK    1  A    between atoms: _1  and  _3
REMARK    2  A    between atoms: _3  and  _4
REMARK    3  A    between atoms: _3  and  _6
REMARK    4  A    between atoms: _9  and  _11
REMARK    5  A    between atoms: _11  and  _12
REMARK    6  A    between atoms: _11  and  _14
REMARK    7  A    between atoms: _14  and  _15
REMARK    8  A    between atoms: _18  and  _20
REMARK    9  A    between atoms: _20  and  _21
REMARK   10  A    between atoms: _23  and  _25
REMARK   11  A    between atoms: _25  and  _26
REMARK   12  A    between atoms: _25  and  _28
REMARK   13  A    between atoms: _28  and  _29
REMARK   14  A    between atoms: _29  and  _30
REMARK   15  A    between atoms: _30  and  _31
REMARK   16  A    between atoms: _40  and  _42
REMARK   17  A    between atoms: _42  and  _43
REMARK   18  A    between atoms: _45  and  _47
REMARK   19  A    between atoms: _47  and  _48
REMARK   20  A    between atoms: _47  and  _50
REMARK   21  A    between atoms: _52  and  _54
REMARK   22  A    between atoms: _54  and  _55
REMARK   23  A    between atoms: _54  and  _57
REMARK   24  A    between atoms: _60  and  _62
REMARK   25  A    between atoms: _62  and  _63
REMARK   26  A    between atoms: _62  and  _65
REMARK   27  A    between atoms: _65  and  _66
REMARK   28  A    between atoms: _71  and  _72
REMARK   29  A    between atoms: _74  and  _76
REMARK   30  A    between atoms: _76  and  _77
REMARK   31  A    between atoms: _76  and  _79
REMARK   32  A    between atoms: _79  and  _80
REMARK   33  A    between atoms: _85  and  _87
REMARK   34  A    between atoms: _87  and  _88
REMARK   35  A    between atoms: _90  and  _92
REMARK   36  A    between atoms: _92  and  _93
REMARK   37  A    between atoms: _92  and  _95
REMARK   38  A    between atoms: _95  and  _96
REMARK   39  A    between atoms: _101  and  _103
REMARK   40  A    between atoms: _103  and  _104
REMARK   41  A    between atoms: _103  and  _106
REMARK   42  A    between atoms: _108  and  _110
REMARK   43  A    between atoms: _110  and  _111
REMARK   44  A    between atoms: _114  and  _116
REMARK   45  A    between atoms: _116  and  _117
REMARK   46  A    between atoms: _116  and  _119
REMARK   47  A    between atoms: _122  and  _124
REMARK   48  A    between atoms: _124  and  _125
REMARK   49  A    between atoms: _124  and  _127
REMARK   50  A    between atoms: _127  and  _128
REMARK   51  A    between atoms: _128  and  _129
REMARK   52  A    between atoms: _129  and  _130
REMARK   53  A    between atoms: _130  and  _131
REMARK   54  A    between atoms: _135  and  _137
REMARK   55  A    between atoms: _137  and  _138
REMARK   56  A    between atoms: _137  and  _140
REMARK   57  A    between atoms: _140  and  _141
REMARK   58  A    between atoms: _143  and  _145
REMARK   59  A    between atoms: _145  and  _146
REMARK   60  A    between atoms: _145  and  _148
REMARK   61  A    between atoms: _148  and  _149
REMARK   62  A    between atoms: _149  and  _150
REMARK   63  A    between atoms: _152  and  _154
REMARK   64  A    between atoms: _154  and  _155
REMARK   65  A    between atoms: _154  and  _157
REMARK   66  A    between atoms: _157  and  _158
REMARK   67  A    between atoms: _161  and  _163
REMARK   68  A    between atoms: _163  and  _164
REMARK   69  A    between atoms: _163  and  _166
REMARK   70  A    between atoms: _166  and  _167
REMARK   71  A    between atoms: _169  and  _171
REMARK   72  A    between atoms: _171  and  _172
REMARK   73  A    between atoms: _171  and  _174
REMARK   74  A    between atoms: _177  and  _179
REMARK   75  A    between atoms: _179  and  _180
REMARK   76  A    between atoms: _179  and  _182
REMARK   77  A    between atoms: _185  and  _187
REMARK   78  A    between atoms: _187  and  _188
REMARK   79  A    between atoms: _187  and  _190
REMARK   80  A    between atoms: _190  and  _191
REMARK   81  A    between atoms: _195  and  _196
REMARK   82  A    between atoms: _201  and  _203
REMARK   83  A    between atoms: _203  and  _204
REMARK   84  A    between atoms: _203  and  _206
REMARK   85  A    between atoms: _206  and  _207
REMARK   86  A    between atoms: _212  and  _213
REMARK   87  A    between atoms: _215  and  _217
REMARK   88  A    between atoms: _217  and  _218
REMARK   89  A    between atoms: _217  and  _220
REMARK   90  A    between atoms: _220  and  _221
REMARK   91  A    between atoms: _221  and  _222
REMARK   92  A    between atoms: _224  and  _226
REMARK   93  A    between atoms: _226  and  _227
REMARK   94  A    between atoms: _226  and  _229
REMARK   95  A    between atoms: _229  and  _230
REMARK   96  A    between atoms: _230  and  _231
REMARK   97  A    between atoms: _231  and  _232
REMARK   98  A    between atoms: _232  and  _233
REMARK   99  A    between atoms: _237  and  _239
REMARK  100  A    between atoms: _239  and  _240
REMARK  101  A    between atoms: _239  and  _242
REMARK  102  A    between atoms: _242  and  _243
REMARK  103  A    between atoms: _248  and  _250
REMARK  104  A    between atoms: _250  and  _251
REMARK  105  A    between atoms: _253  and  _255
REMARK  106  A    between atoms: _255  and  _256
REMARK  107  A    between atoms: _255  and  _258
REMARK  108  A    between atoms: _258  and  _259
REMARK  109  A    between atoms: _262  and  _264
REMARK  110  A    between atoms: _264  and  _265
REMARK  111  A    between atoms: _264  and  _267
REMARK  112  A    between atoms: _267  and  _268
REMARK  113  A    between atoms: _271  and  _273
REMARK  114  A    between atoms: _273  and  _274
REMARK  115  A    between atoms: _273  and  _276
REMARK  116  A    between atoms: _276  and  _277
REMARK  117  A    between atoms: _277  and  _278
REMARK  118  A    between atoms: _278  and  _279
REMARK  119  A    between atoms: _288  and  _290
REMARK  120  A    between atoms: _290  and  _291
REMARK  121  A    between atoms: _290  and  _293
REMARK  122  A    between atoms: _293  and  _294
REMARK  123  A    between atoms: _299  and  _301
REMARK  124  A    between atoms: _301  and  _302
REMARK  125  A    between atoms: _301  and  _304
REMARK  126  A    between atoms: _304  and  _305
REMARK  127  A    between atoms: _311  and  _313
REMARK  128  A    between atoms: _313  and  _314
REMARK  129  A    between atoms: _313  and  _316
REMARK  130  A    between atoms: _316  and  _317
REMARK  131  A    between atoms: _317  and  _318
REMARK  132  A    between atoms: _318  and  _319
REMARK  133  A    between atoms: _328  and  _330
REMARK  134  A    between atoms: _330  and  _331
REMARK  135  A    between atoms: _330  and  _333
REMARK  136  A    between atoms: _333  and  _334
REMARK  137  A    between atoms: _339  and  _341
REMARK  138  A    between atoms: _341  and  _342
REMARK  139  A    between atoms: _341  and  _344
REMARK  140  A    between atoms: _344  and  _345
REMARK  141  A    between atoms: _348  and  _350
REMARK  142  A    between atoms: _350  and  _351
REMARK  143  A    between atoms: _354  and  _356
REMARK  144  A    between atoms: _356  and  _357
REMARK  145  A    between atoms: _360  and  _362
REMARK  146  A    between atoms: _362  and  _363
REMARK  147  A    between atoms: _362  and  _365
REMARK  148  A    between atoms: _365  and  _366
REMARK  149  A    between atoms: _366  and  _367
REMARK  150  A    between atoms: _367  and  _368
REMARK  151  A    between atoms: _377  and  _379
REMARK  152  A    between atoms: _379  and  _380
REMARK  153  A    between atoms: _379  and  _382
REMARK  154  A    between atoms: _382  and  _383
REMARK  155  A    between atoms: _388  and  _390
REMARK  156  A    between atoms: _390  and  _391
REMARK  157  A    between atoms: _390  and  _393
REMARK  158  A    between atoms: _395  and  _397
REMARK  159  A    between atoms: _397  and  _398
REMARK  160  A    between atoms: _397  and  _400
REMARK  161  A    between atoms: _400  and  _401
REMARK  162  A    between atoms: _401  and  _402
REMARK  163  A    between atoms: _404  and  _406
REMARK  164  A    between atoms: _406  and  _407
REMARK  165  A    between atoms: _406  and  _409
REMARK  166  A    between atoms: _409  and  _410
REMARK  167  A    between atoms: _413  and  _415
REMARK  168  A    between atoms: _415  and  _416
REMARK  169  A    between atoms: _415  and  _418
REMARK  170  A    between atoms: _418  and  _419
REMARK  171  A    between atoms: _422  and  _424
REMARK  172  A    between atoms: _424  and  _425
REMARK  173  A    between atoms: _424  and  _427
REMARK  174  A    between atoms: _427  and  _428
REMARK  175  A    between atoms: _428  and  _429
REMARK  176  A    between atoms: _429  and  _430
REMARK  177  A    between atoms: _430  and  _431
REMARK  178  A    between atoms: _435  and  _437
REMARK  179  A    between atoms: _437  and  _438
REMARK  180  A    between atoms: _437  and  _440
REMARK  181  A    between atoms: _443  and  _445
REMARK  182  A    between atoms: _445  and  _446
REMARK  183  A    between atoms: _449  and  _451
REMARK  184  A    between atoms: _451  and  _452
REMARK  185  A    between atoms: _451  and  _454
REMARK  186  A    between atoms: _454  and  _455
REMARK  187  A    between atoms: _458  and  _460
REMARK  188  A    between atoms: _460  and  _461
REMARK  189  A    between atoms: _460  and  _463
REMARK  190  A    between atoms: _463  and  _464
REMARK  191  A    between atoms: _470  and  _472
REMARK  192  A    between atoms: _472  and  _473
REMARK  193  A    between atoms: _472  and  _475
REMARK  194  A    between atoms: _475  and  _476
REMARK  195  A    between atoms: _479  and  _481
REMARK  196  A    between atoms: _481  and  _482
REMARK  197  A    between atoms: _485  and  _487
REMARK  198  A    between atoms: _487  and  _488
REMARK  199  A    between atoms: _487  and  _490
REMARK  200  A    between atoms: _490  and  _491
REMARK  201  A    between atoms: _491  and  _492
REMARK  202  A    between atoms: _492  and  _493
REMARK  203  A    between atoms: _502  and  _504
REMARK  204  A    between atoms: _504  and  _505
REMARK  205  A    between atoms: _504  and  _507
REMARK  206  A    between atoms: _507  and  _508
REMARK  207  A    between atoms: _511  and  _513
REMARK  208  A    between atoms: _513  and  _514
REMARK  209  A    between atoms: _513  and  _516
REMARK  210  A    between atoms: _516  and  _517
REMARK  211  A    between atoms: _517  and  _518
REMARK  212  A    between atoms: _520  and  _522
REMARK  213  A    between atoms: _522  and  _523
REMARK  214  A    between atoms: _522  and  _525
REMARK  215  A    between atoms: _525  and  _526
REMARK  216  A    between atoms: _531  and  _532
REMARK  217  A    between atoms: _534  and  _536
REMARK  218  A    between atoms: _536  and  _537
REMARK  219  A    between atoms: _536  and  _539
REMARK  220  A    between atoms: _539  and  _540
REMARK  221  A    between atoms: _543  and  _545
REMARK  222  A    between atoms: _545  and  _546
REMARK  223  A    between atoms: _545  and  _548
REMARK  224  A    between atoms: _548  and  _549
REMARK  225  A    between atoms: _549  and  _550
REMARK  226  A    between atoms: _550  and  _551
REMARK  227  A    between atoms: _551  and  _552
REMARK  228  A    between atoms: _556  and  _558
REMARK  229  A    between atoms: _558  and  _559
REMARK  230  A    between atoms: _558  and  _561
REMARK  231  A    between atoms: _561  and  _562
REMARK  232  A    between atoms: _562  and  _563
REMARK  233  A    between atoms: _566  and  _568
REMARK  234  A    between atoms: _568  and  _569
REMARK  235  A    between atoms: _568  and  _571
REMARK  236  A    between atoms: _571  and  _572
REMARK  237  A    between atoms: _577  and  _578
REMARK  238  A    between atoms: _580  and  _582
REMARK  239  A    between atoms: _582  and  _583
REMARK  240  A    between atoms: _582  and  _585
REMARK  241  A    between atoms: _585  and  _586
REMARK  242  A    between atoms: _591  and  _592
REMARK                            x       y       z     vdW  Elec       q    Type
REMARK                         _______ _______ _______ _____ _____    ______ ____
ROOT
ATOM      1  CA  HIS A   8      28.798  79.649   3.078  0.00  0.00    +0.155 C 
ENDROOT
BRANCH   1   3
ATOM      2  C   LYS A   7      29.667  81.900   3.265  0.00  0.00    +0.241 C 
ATOM      3  N   HIS A   8      29.166  80.821   3.859  0.00  0.00    -0.297 N 
ATOM      4  H   HIS A   8      29.036  80.814   4.891  0.00  0.00    +0.150 HD
ATOM      5  O   LYS A   7      29.790  81.987   2.043  0.00  0.00    -0.273 OA
BRANCH   2   6
ATOM      6  CA  LYS A   7      30.090  83.053   4.171  0.00  0.00    +0.149 C 
BRANCH   6   8
ATOM      7  C   MET A   6      27.977  83.315   5.367  0.00  0.00    +0.241 C 
ATOM      8  N   LYS A   7      29.296  83.153   5.390  0.00  0.00    -0.297 N 
ATOM      9  H   LYS A   7      29.779  83.096   6.309  0.00  0.00    +0.150 HD
ATOM     10  O   MET A   6      27.299  83.173   4.350  0.00  0.00    -0.273 OA
BRANCH   7  11
ATOM     11  CA  MET A   6      27.332  83.690   6.697  0.00  0.00    +0.149 C 
BRANCH  11  14
ATOM     12  C   TYR A   5      27.806  85.959   7.457  0.00  0.00    +0.241 C 
ATOM     13  O   TYR A   5      28.725  85.578   8.182  0.00  0.00    -0.273 OA
ATOM     14  N   MET A   6      27.072  85.127   6.722  0.00  0.00    -0.297 N 
ATOM     15  H   MET A   6      26.292  85.510   6.150  0.00  0.00    +0.150 HD
BRANCH  12  16
ATOM     16  CA  TYR A   5      27.445  87.440   7.375  0.00  0.00    +0.153 C 
BRANCH  16  19
ATOM     17  C   PRO A   4      26.336  87.686   9.530  0.00  0.00    +0.241 C 
ATOM     18  O   PRO A   4      25.393  86.961   9.196  0.00  0.00    -0.273 OA
ATOM     19  N   TYR A   5      27.343  87.988   8.721  0.00  0.00    -0.297 N 
ATOM     20  H   TYR A   5      28.083  88.636   9.058  0.00  0.00    +0.150 HD
BRANCH  17  26
ATOM     21  C   LEU A   3      24.412  89.672  10.647  0.00  0.00    +0.244 C 
ATOM     22  N   PRO A   4      25.063  88.745  11.358  0.00  0.00    -0.272 N 
ATOM     23  CD  PRO A   4      24.582  87.988  12.526  0.00  0.00    +0.094 C 
ATOM     24  CG  PRO A   4      25.538  86.833  12.601  0.00  0.00    +0.024 C 
ATOM     25  CB  PRO A   4      26.813  87.306  11.998  0.00  0.00    +0.031 C 
ATOM     26  CA  PRO A   4      26.392  88.310  10.924  0.00  0.00    +0.152 C 
ATOM     27  O   LEU A   3      24.941  90.256   9.702  0.00  0.00    -0.273 OA
BRANCH  21  28
ATOM     28  CA  LEU A   3      22.977  89.980  11.055  0.00  0.00    +0.149 C 
BRANCH  28  31
ATOM     29  C   VAL A   2      22.171  92.235  11.514  0.00  0.00    +0.241 C 
ATOM     30  O   VAL A   2      22.116  92.032  12.731  0.00  0.00    -0.273 OA
ATOM     31  N   LEU A   3      22.619  91.334  10.646  0.00  0.00    -0.297 N 
ATOM     32  H   LEU A   3      22.717  91.602   9.646  0.00  0.00    +0.150 HD
BRANCH  29  33
ATOM     33  CA  VAL A   2      21.703  93.556  10.913  0.00  0.00    +0.148 C 
BRANCH  33  35
ATOM     34  C   VAL A   1      19.337  93.550  10.406  0.00  0.00    +0.238 C 
ATOM     35  N   VAL A   2      20.316  93.813  11.264  0.00  0.00    -0.297 N 
ATOM     36  H   VAL A   2      20.087  94.208  12.199  0.00  0.00    +0.150 HD
ATOM     37  O   VAL A   1      19.532  93.012   9.311  0.00  0.00    -0.274 OA
BRANCH  34  38
ATOM     38  CA  VAL A   1      17.932  93.955  10.841  0.00  0.00    +0.145 C 
BRANCH  38  39
ATOM     39  CB  VAL A   1      17.031  92.701  10.877  0.00  0.00    +0.025 C 
ATOM     40  CG2 VAL A   1      17.610  91.668  11.832  0.00  0.00    +0.002 C 
ATOM     41  CG1 VAL A   1      15.622  93.091  11.305  0.00  0.00    +0.002 C 
ENDBRANCH  38  39
BRANCH  38  42
ATOM     42  N   VAL A   1      17.409  94.943   9.913  0.00  0.00    -0.238 NA
ATOM     43  H   VAL A   1      16.954  94.623   9.034  0.00  0.00    +0.142 HD
ENDBRANCH  38  42
ENDBRANCH  34  38
ENDBRANCH  33  35
BRANCH  33  44
ATOM     44  CB  VAL A   2      22.619  94.698  11.397  0.00  0.00    +0.027 C 
ATOM     45  CG2 VAL A   2      22.046  96.041  10.963  0.00  0.00    +0.002 C 
ATOM     46  CG1 VAL A   2      24.018  94.512  10.831  0.00  0.00    +0.002 C 
ENDBRANCH  33  44
ENDBRANCH  29  33
ENDBRANCH  28  31
BRANCH  28  47
ATOM     47  CB  LEU A   3      22.021  88.971  10.403  0.00  0.00    +0.029 C 
BRANCH  47  48
ATOM     48  CG  LEU A   3      20.528  89.244  10.640  0.00  0.00    +0.002 C 
ATOM     49  CD2 LEU A   3      20.156  88.829  12.064  0.00  0.00    +0.000 C 
ATOM     50  CD1 LEU A   3      19.680  88.493   9.615  0.00  0.00    +0.000 C 
ENDBRANCH  47  48
ENDBRANCH  28  47
ENDBRANCH  21  28
ENDBRANCH  17  26
ENDBRANCH  16  19
BRANCH  16  51
ATOM     51  CB  TYR A   5      28.517  88.208   6.591  0.00  0.00    +0.055 C 
BRANCH  51  52
ATOM     52  CG  TYR A   5      28.797  87.673   5.204  0.00  0.00    -0.020 A 
ATOM     53  CD2 TYR A   5      29.999  87.040   4.918  0.00  0.00    -0.001 A 
ATOM     54  CE2 TYR A   5      30.274  86.566   3.653  0.00  0.00    +0.036 A 
ATOM     55  CZ  TYR A   5      29.343  86.716   2.650  0.00  0.00    +0.134 A 
ATOM     56  CE1 TYR A   5      28.138  87.339   2.904  0.00  0.00    +0.036 A 
ATOM     57  CD1 TYR A   5      27.871  87.815   4.179  0.00  0.00    -0.001 A 
BRANCH  55  58
ATOM     58  OH  TYR A   5      29.625  86.237   1.392  0.00  0.00    -0.506 OA
ATOM     59  HH  TYR A   5      28.861  86.422   0.791  0.00  0.00    +0.292 HD
ENDBRANCH  55  58
ENDBRANCH  51  52
ENDBRANCH  16  51
ENDBRANCH  12  16
ENDBRANCH  11  14
BRANCH  11  60
ATOM     60  CB  MET A   6      26.024  82.913   6.890  0.00  0.00    +0.041 C 
BRANCH  60  61
ATOM     61  CG  MET A   6      25.360  83.167   8.242  0.00  0.00    +0.060 C 
BRANCH  61  62
ATOM     62  SD  MET A   6      26.231  82.340   9.605  0.00  0.00    -0.139 S 
ATOM     63  CE  MET A   6      26.876  83.721  10.520  0.00  0.00    +0.069 C 
ENDBRANCH  61  62
ENDBRANCH  60  61
ENDBRANCH  11  60
ENDBRANCH   7  11
ENDBRANCH   6   8
BRANCH   6  64
ATOM     64  CB  LYS A   7      31.570  82.907   4.537  0.00  0.00    +0.029 C 
BRANCH  64  65
ATOM     65  CG  LYS A   7      32.506  82.690   3.358  0.00  0.00    +0.000 C 
BRANCH  65  66
ATOM     66  CD  LYS A   7      33.942  83.018   3.755  0.00  0.00    -0.024 C 
BRANCH  66  67
ATOM     67  CE  LYS A   7      34.945  82.564   2.702  0.00  0.00    -0.086 C 
BRANCH  67  68
ATOM     68  NZ  LYS A   7      35.182  81.092   2.741  0.00  0.00    +0.380 N 
ATOM     69  HZ1 LYS A   7      35.554  80.827   3.675  0.00  0.00    -0.089 HD
ATOM     70  HZ2 LYS A   7      34.286  80.593   2.568  0.00  0.00    -0.089 HD
ATOM     71  HZ3 LYS A   7      35.871  80.833   2.006  0.00  0.00    -0.089 HD
ENDBRANCH  67  68
ENDBRANCH  66  67
ENDBRANCH  65  66
ENDBRANCH  64  65
ENDBRANCH   6  64
ENDBRANCH   2   6
ENDBRANCH   1   3
BRANCH   1  72
ATOM     72  C   HIS A   8      27.295  79.500   2.845  0.00  0.00    +0.241 C 
ATOM     73  N   GLY A   9      26.533  80.536   3.181  0.00  0.00    -0.295 N 
ATOM     74  H   GLY A   9      26.953  81.346   3.680  0.00  0.00    +0.150 HD
ATOM     75  O   HIS A   8      26.836  78.465   2.358  0.00  0.00    -0.273 OA
BRANCH  73  76
ATOM     76  CA  GLY A   9      25.117  80.543   2.856  0.00  0.00    +0.176 C 
BRANCH  76  77
ATOM     77  C   GLY A   9      24.291  79.554   3.656  0.00  0.00    +0.243 C 
ATOM     78  O   GLY A   9      24.694  79.128   4.740  0.00  0.00    -0.273 OA
ATOM     79  N   ASP A  10      23.130  79.182   3.121  0.00  0.00    -0.296 N 
ATOM     80  H   ASP A  10      22.840  79.578   2.204  0.00  0.00    +0.150 HD
BRANCH  79  81
ATOM     81  CA  ASP A  10      22.259  78.230   3.798  0.00  0.00    +0.160 C 
BRANCH  81  82
ATOM     82  C   ASP A  10      22.723  76.792   3.593  0.00  0.00    +0.241 C 
ATOM     83  N   LEU A  11      22.414  75.952   4.570  0.00  0.00    -0.297 N 
ATOM     84  H   LEU A  11      21.808  76.288   5.346  0.00  0.00    +0.150 HD
ATOM     85  O   ASP A  10      23.338  76.451   2.581  0.00  0.00    -0.273 OA
BRANCH  83  86
ATOM     86  CA  LEU A  11      22.890  74.578   4.599  0.00  0.00    +0.149 C 
BRANCH  86  87
ATOM     87  C   LEU A  11      22.378  73.734   3.427  0.00  0.00    +0.241 C 
ATOM     88  N   ARG A  12      21.127  73.936   3.025  0.00  0.00    -0.297 N 
ATOM     89  H   ARG A  12      20.542  74.667   3.477  0.00  0.00    +0.150 HD
ATOM     90  O   LEU A  11      23.113  72.903   2.889  0.00  0.00    -0.273 OA
BRANCH  88  91
ATOM     91  CA  ARG A  12      20.583  73.120   1.942  0.00  0.00    +0.149 C 
BRANCH  91  92
ATOM     92  C   ARG A  12      21.352  73.330   0.637  0.00  0.00    +0.241 C 
ATOM     93  N   ASN A  13      21.554  74.585   0.252  0.00  0.00    -0.297 N 
ATOM     94  H   ASN A  13      21.178  75.369   0.823  0.00  0.00    +0.150 HD
ATOM     95  O   ARG A  12      21.766  72.369  -0.010  0.00  0.00    -0.273 OA
BRANCH  93  96
ATOM     96  CA  ASN A  13      22.302  74.868  -0.969  0.00  0.00    +0.158 C 
BRANCH  96  97
ATOM     97  C   ASN A  13      23.739  74.378  -0.860  0.00  0.00    +0.241 C 
ATOM     98  N   PHE A  14      24.300  74.437   0.343  0.00  0.00    -0.298 N 
ATOM     99  H   PHE A  14      23.754  74.796   1.152  0.00  0.00    +0.150 HD
ATOM    100  O   ASN A  13      24.327  73.937  -1.846  0.00  0.00    -0.273 OA
BRANCH  98 101
ATOM    101  CA  PHE A  14      25.674  74.002   0.532  0.00  0.00    +0.141 C 
BRANCH 101 102
ATOM    102  C   PHE A  14      25.831  72.508   0.233  0.00  0.00    +0.227 C 
ATOM    103  O   PHE A  14      26.785  72.097  -0.428  0.00  0.00    -0.286 OA
ENDBRANCH 101 102
BRANCH 101 104
ATOM    104  CB  PHE A  14      26.139  74.303   1.961  0.00  0.00    +0.054 C 
BRANCH 104 105
ATOM    105  CG  PHE A  14      27.579  73.953   2.211  0.00  0.00    -0.020 A 
ATOM    106  CD2 PHE A  14      27.930  72.692   2.671  0.00  0.00    -0.004 A 
ATOM    107  CE2 PHE A  14      29.257  72.355   2.869  0.00  0.00    -0.000 A 
ATOM    108  CZ  PHE A  14      30.250  73.281   2.610  0.00  0.00    -0.000 A 
ATOM    109  CE1 PHE A  14      29.913  74.541   2.153  0.00  0.00    -0.000 A 
ATOM    110  CD1 PHE A  14      28.582  74.872   1.956  0.00  0.00    -0.004 A 
ENDBRANCH 104 105
ENDBRANCH 101 104
ENDBRANCH  98 101
ENDBRANCH  96  97
BRANCH  96 111
ATOM    111  CB  ASN A  13      22.274  76.367  -1.279  0.00  0.00    +0.114 C 
BRANCH 111 112
ATOM    112  CG  ASN A  13      21.032  76.771  -2.052  0.00  0.00    +0.222 C 
ATOM    113  ND2 ASN A  13      20.447  77.907  -1.688  0.00  0.00    -0.329 N 
ATOM    114 HD21 ASN A  13      20.848  78.473  -0.913  0.00  0.00    +0.145 HD
ATOM    115 HD22 ASN A  13      19.588  78.230  -2.178  0.00  0.00    +0.145 HD
ATOM    116  OD1 ASN A  13      20.599  76.061  -2.964  0.00  0.00    -0.275 OA
ENDBRANCH 111 112
ENDBRANCH  96 111
ENDBRANCH  93  96
ENDBRANCH  91  92
BRANCH  91 117
ATOM    117  CB  ARG A  12      19.095  73.414   1.703  0.00  0.00    +0.033 C 
BRANCH 117 118
ATOM    118  CG  ARG A  12      18.460  72.362   0.791  0.00  0.00    +0.045 C 
BRANCH 118 119
ATOM    119  CD  ARG A  12      17.063  72.711   0.298  0.00  0.00    +0.174 C 
BRANCH 119 120
ATOM    120  NE  ARG A  12      16.564  71.650  -0.578  0.00  0.00    -0.265 N 
ATOM    121  HE  ARG A  12      16.733  70.666  -0.288  0.00  0.00    +0.259 HD
ATOM    122  CZ  ARG A  12      15.910  71.852  -1.718  0.00  0.00    +0.342 C 
ATOM    123  NH2 ARG A  12      15.657  73.086  -2.139  0.00  0.00    -0.292 N 
ATOM    124 HH21 ARG A  12      15.971  73.902  -1.576  0.00  0.00    +0.255 HD
ATOM    125 HH22 ARG A  12      15.145  73.236  -3.032  0.00  0.00    +0.255 HD
ATOM    126  NH1 ARG A  12      15.521  70.813  -2.446  0.00  0.00    -0.292 N 
ATOM    127 HH11 ARG A  12      15.728  69.846  -2.124  0.00  0.00    +0.255 HD
ATOM    128 HH12 ARG A  12      15.009  70.966  -3.338  0.00  0.00    +0.255 HD
ENDBRANCH 119 120
ENDBRANCH 118 119
ENDBRANCH 117 118
ENDBRANCH  91 117
ENDBRANCH  88  91
ENDBRANCH  86  87
BRANCH  86 129
ATOM    129  CB  LEU A  11      22.480  73.937   5.923  0.00  0.00    +0.029 C 
BRANCH 129 130
ATOM    130  CG  LEU A  11      22.888  72.487   6.176  0.00  0.00    +0.002 C 
ATOM    131  CD2 LEU A  11      22.306  72.037   7.511  0.00  0.00    +0.000 C 
ATOM    132  CD1 LEU A  11      24.415  72.371   6.175  0.00  0.00    +0.000 C 
ENDBRANCH 129 130
ENDBRANCH  86 129
ENDBRANCH  83  86
ENDBRANCH  81  82
BRANCH  81 133
ATOM    133  CB  ASP A  10      20.811  78.386   3.315  0.00  0.00    +0.143 C 
BRANCH 133 134
ATOM    134  CG  ASP A  10      20.616  77.917   1.886  0.00  0.00    +0.367 C 
ATOM    135  OD2 ASP A  10      20.107  76.795   1.696  0.00  0.00    -0.246 OA
ATOM    136  OD1 ASP A  10      20.973  78.665   0.954  0.00  0.00    -0.246 OA
ENDBRANCH 133 134
ENDBRANCH  81 133
ENDBRANCH  79  81
ENDBRANCH  76  77
ENDBRANCH  73  76
ENDBRANCH   1  72
BRANCH   1 137
ATOM    137  CB  HIS A   8      29.361  78.386   3.735  0.00  0.00    +0.076 C 
BRANCH 137 138
ATOM    138  CG  HIS A   8      30.857  78.359   3.784  0.00  0.00    +0.082 A 
ATOM    139  ND1 HIS A   8      31.567  78.512   4.955  0.00  0.00    -0.227 NA
ATOM    140  CE1 HIS A   8      32.862  78.481   4.690  0.00  0.00    +0.199 A 
ATOM    141  NE2 HIS A   8      33.017  78.310   3.389  0.00  0.00    -0.221 NA
ATOM    142  CD2 HIS A   8      31.778  78.229   2.799  0.00  0.00    +0.115 A 
ENDBRANCH 137 138
ENDBRANCH   1 137
TORSDOF 56
REMARK  Name = ../refined-set-2016/3zxz/3zxz_pocket.pdb
REMARK  242 active torsions:
REMARK  status: ('A' for Active; 'I' for Inactive)
REMARK    1  A    between atoms: _1  and  _3
REMARK    2  A    between atoms: _3  and  _4
REMARK    3  A    between atoms: _3  and  _6
REMARK    4  A    between atoms: _9  and  _11
REMARK    5  A    between atoms: _11  and  _12
REMARK    6  A    between atoms: _11  and  _14
REMARK    7  A    between atoms: _14  and  _15
REMARK    8  A    between atoms: _18  and  _20
REMARK    9  A    between atoms: _20  and  _21
REMARK   10  A    between atoms: _23  and  _25
REMARK   11  A    between atoms: _25  and  _26
REMARK   12  A    between atoms: _25  and  _28
REMARK   13  A    between atoms: _28  and  _29
REMARK   14  A    between atoms: _29  and  _30
REMARK   15  A    between atoms: _30  and  _31
REMARK   16  A    between atoms: _40  and  _42
REMARK   17  A    between atoms: _42  and  _43
REMARK   18  A    between atoms: _45  and  _47
REMARK   19  A    between atoms: _47  and  _48
REMARK   20  A    between atoms: _47  and  _50
REMARK   21  A    between atoms: _52  and  _54
REMARK   22  A    between atoms: _54  and  _55
REMARK   23  A    between atoms: _54  and  _57
REMARK   24  A    between atoms: _60  and  _62
REMARK   25  A    between atoms: _62  and  _63
REMARK   26  A    between atoms: _62  and  _65
REMARK   27  A    between atoms: _65  and  _66
REMARK   28  A    between atoms: _71  and  _72
REMARK   29  A    between atoms: _74  and  _76
REMARK   30  A    between atoms: _76  and  _77
REMARK   31  A    between atoms: _76  and  _79
REMARK   32  A    between atoms: _79  and  _80
REMARK   33  A    between atoms: _85  and  _87
REMARK   34  A    between atoms: _87  and  _88
REMARK   35  A    between atoms: _90  and  _92
REMARK   36  A    between atoms: _92  and  _93
REMARK   37  A    between atoms: _92  and  _95
REMARK   38  A    between atoms: _95  and  _96
REMARK   39  A    between atoms: _101  and  _103
REMARK   40  A    between atoms: _103  and  _104
REMARK   41  A    between atoms: _103  and  _106
REMARK   42  A    between atoms: _108  and  _110
REMARK   43  A    between atoms: _110  and  _111
REMARK   44  A    between atoms: _114  and  _116
REMARK   45  A    between atoms: _116  and  _117
REMARK   46  A    between atoms: _116  and  _119
REMARK   47  A    between atoms: _122  and  _124
REMARK   48  A    between atoms: _124  and  _125
REMARK   49  A    between atoms: _124  and  _127
REMARK   50  A    between atoms: _127  and  _128
REMARK   51  A    between atoms: _128  and  _129
REMARK   52  A    between atoms: _129  and  _130
REMARK   53  A    between atoms: _130  and  _131
REMARK   54  A    between atoms: _135  and  _137
REMARK   55  A    between atoms: _137  and  _138
REMARK   56  A    between atoms: _137  and  _140
REMARK   57  A    between atoms: _140  and  _141
REMARK   58  A    between atoms: _143  and  _145
REMARK   59  A    between atoms: _145  and  _146
REMARK   60  A    between atoms: _145  and  _148
REMARK   61  A    between atoms: _148  and  _149
REMARK   62  A    between atoms: _149  and  _150
REMARK   63  A    between atoms: _152  and  _154
REMARK   64  A    between atoms: _154  and  _155
REMARK   65  A    between atoms: _154  and  _157
REMARK   66  A    between atoms: _157  and  _158
REMARK   67  A    between atoms: _161  and  _163
REMARK   68  A    between atoms: _163  and  _164
REMARK   69  A    between atoms: _163  and  _166
REMARK   70  A    between atoms: _166  and  _167
REMARK   71  A    between atoms: _169  and  _171
REMARK   72  A    between atoms: _171  and  _172
REMARK   73  A    between atoms: _171  and  _174
REMARK   74  A    between atoms: _177  and  _179
REMARK   75  A    between atoms: _179  and  _180
REMARK   76  A    between atoms: _179  and  _182
REMARK   77  A    between atoms: _185  and  _187
REMARK   78  A    between atoms: _187  and  _188
REMARK   79  A    between atoms: _187  and  _190
REMARK   80  A    between atoms: _190  and  _191
REMARK   81  A    between atoms: _195  and  _196
REMARK   82  A    between atoms: _201  and  _203
REMARK   83  A    between atoms: _203  and  _204
REMARK   84  A    between atoms: _203  and  _206
REMARK   85  A    between atoms: _206  and  _207
REMARK   86  A    between atoms: _212  and  _213
REMARK   87  A    between atoms: _215  and  _217
REMARK   88  A    between atoms: _217  and  _218
REMARK   89  A    between atoms: _217  and  _220
REMARK   90  A    between atoms: _220  and  _221
REMARK   91  A    between atoms: _221  and  _222
REMARK   92  A    between atoms: _224  and  _226
REMARK   93  A    between atoms: _226  and  _227
REMARK   94  A    between atoms: _226  and  _229
REMARK   95  A    between atoms: _229  and  _230
REMARK   96  A    between atoms: _230  and  _231
REMARK   97  A    between atoms: _231  and  _232
REMARK   98  A    between atoms: _232  and  _233
REMARK   99  A    between atoms: _237  and  _239
REMARK  100  A    between atoms: _239  and  _240
REMARK  101  A    between atoms: _239  and  _242
REMARK  102  A    between atoms: _242  and  _243
REMARK  103  A    between atoms: _248  and  _250
REMARK  104  A    between atoms: _250  and  _251
REMARK  105  A    between atoms: _253  and  _255
REMARK  106  A    between atoms: _255  and  _256
REMARK  107  A    between atoms: _255  and  _258
REMARK  108  A    between atoms: _258  and  _259
REMARK  109  A    between atoms: _262  and  _264
REMARK  110  A    between atoms: _264  and  _265
REMARK  111  A    between atoms: _264  and  _267
REMARK  112  A    between atoms: _267  and  _268
REMARK  113  A    between atoms: _271  and  _273
REMARK  114  A    between atoms: _273  and  _274
REMARK  115  A    between atoms: _273  and  _276
REMARK  116  A    between atoms: _276  and  _277
REMARK  117  A    between atoms: _277  and  _278
REMARK  118  A    between atoms: _278  and  _279
REMARK  119  A    between atoms: _288  and  _290
REMARK  120  A    between atoms: _290  and  _291
REMARK  121  A    between atoms: _290  and  _293
REMARK  122  A    between atoms: _293  and  _294
REMARK  123  A    between atoms: _299  and  _301
REMARK  124  A    between atoms: _301  and  _302
REMARK  125  A    between atoms: _301  and  _304
REMARK  126  A    between atoms: _304  and  _305
REMARK  127  A    between atoms: _311  and  _313
REMARK  128  A    between atoms: _313  and  _314
REMARK  129  A    between atoms: _313  and  _316
REMARK  130  A    between atoms: _316  and  _317
REMARK  131  A    between atoms: _317  and  _318
REMARK  132  A    between atoms: _318  and  _319
REMARK  133  A    between atoms: _328  and  _330
REMARK  134  A    between atoms: _330  and  _331
REMARK  135  A    between atoms: _330  and  _333
REMARK  136  A    between atoms: _333  and  _334
REMARK  137  A    between atoms: _339  and  _341
REMARK  138  A    between atoms: _341  and  _342
REMARK  139  A    between atoms: _341  and  _344
REMARK  140  A    between atoms: _344  and  _345
REMARK  141  A    between atoms: _348  and  _350
REMARK  142  A    between atoms: _350  and  _351
REMARK  143  A    between atoms: _354  and  _356
REMARK  144  A    between atoms: _356  and  _357
REMARK  145  A    between atoms: _360  and  _362
REMARK  146  A    between atoms: _362  and  _363
REMARK  147  A    between atoms: _362  and  _365
REMARK  148  A    between atoms: _365  and  _366
REMARK  149  A    between atoms: _366  and  _367
REMARK  150  A    between atoms: _367  and  _368
REMARK  151  A    between atoms: _377  and  _379
REMARK  152  A    between atoms: _379  and  _380
REMARK  153  A    between atoms: _379  and  _382
REMARK  154  A    between atoms: _382  and  _383
REMARK  155  A    between atoms: _388  and  _390
REMARK  156  A    between atoms: _390  and  _391
REMARK  157  A    between atoms: _390  and  _393
REMARK  158  A    between atoms: _395  and  _397
REMARK  159  A    between atoms: _397  and  _398
REMARK  160  A    between atoms: _397  and  _400
REMARK  161  A    between atoms: _400  and  _401
REMARK  162  A    between atoms: _401  and  _402
REMARK  163  A    between atoms: _404  and  _406
REMARK  164  A    between atoms: _406  and  _407
REMARK  165  A    between atoms: _406  and  _409
REMARK  166  A    between atoms: _409  and  _410
REMARK  167  A    between atoms: _413  and  _415
REMARK  168  A    between atoms: _415  and  _416
REMARK  169  A    between atoms: _415  and  _418
REMARK  170  A    between atoms: _418  and  _419
REMARK  171  A    between atoms: _422  and  _424
REMARK  172  A    between atoms: _424  and  _425
REMARK  173  A    between atoms: _424  and  _427
REMARK  174  A    between atoms: _427  and  _428
REMARK  175  A    between atoms: _428  and  _429
REMARK  176  A    between atoms: _429  and  _430
REMARK  177  A    between atoms: _430  and  _431
REMARK  178  A    between atoms: _435  and  _437
REMARK  179  A    between atoms: _437  and  _438
REMARK  180  A    between atoms: _437  and  _440
REMARK  181  A    between atoms: _443  and  _445
REMARK  182  A    between atoms: _445  and  _446
REMARK  183  A    between atoms: _449  and  _451
REMARK  184  A    between atoms: _451  and  _452
REMARK  185  A    between atoms: _451  and  _454
REMARK  186  A    between atoms: _454  and  _455
REMARK  187  A    between atoms: _458  and  _460
REMARK  188  A    between atoms: _460  and  _461
REMARK  189  A    between atoms: _460  and  _463
REMARK  190  A    between atoms: _463  and  _464
REMARK  191  A    between atoms: _470  and  _472
REMARK  192  A    between atoms: _472  and  _473
REMARK  193  A    between atoms: _472  and  _475
REMARK  194  A    between atoms: _475  and  _476
REMARK  195  A    between atoms: _479  and  _481
REMARK  196  A    between atoms: _481  and  _482
REMARK  197  A    between atoms: _485  and  _487
REMARK  198  A    between atoms: _487  and  _488
REMARK  199  A    between atoms: _487  and  _490
REMARK  200  A    between atoms: _490  and  _491
REMARK  201  A    between atoms: _491  and  _492
REMARK  202  A    between atoms: _492  and  _493
REMARK  203  A    between atoms: _502  and  _504
REMARK  204  A    between atoms: _504  and  _505
REMARK  205  A    between atoms: _504  and  _507
REMARK  206  A    between atoms: _507  and  _508
REMARK  207  A    between atoms: _511  and  _513
REMARK  208  A    between atoms: _513  and  _514
REMARK  209  A    between atoms: _513  and  _516
REMARK  210  A    between atoms: _516  and  _517
REMARK  211  A    between atoms: _517  and  _518
REMARK  212  A    between atoms: _520  and  _522
REMARK  213  A    between atoms: _522  and  _523
REMARK  214  A    between atoms: _522  and  _525
REMARK  215  A    between atoms: _525  and  _526
REMARK  216  A    between atoms: _531  and  _532
REMARK  217  A    between atoms: _534  and  _536
REMARK  218  A    between atoms: _536  and  _537
REMARK  219  A    between atoms: _536  and  _539
REMARK  220  A    between atoms: _539  and  _540
REMARK  221  A    between atoms: _543  and  _545
REMARK  222  A    between atoms: _545  and  _546
REMARK  223  A    between atoms: _545  and  _548
REMARK  224  A    between atoms: _548  and  _549
REMARK  225  A    between atoms: _549  and  _550
REMARK  226  A    between atoms: _550  and  _551
REMARK  227  A    between atoms: _551  and  _552
REMARK  228  A    between atoms: _556  and  _558
REMARK  229  A    between atoms: _558  and  _559
REMARK  230  A    between atoms: _558  and  _561
REMARK  231  A    between atoms: _561  and  _562
REMARK  232  A    between atoms: _562  and  _563
REMARK  233  A    between atoms: _566  and  _568
REMARK  234  A    between atoms: _568  and  _569
REMARK  235  A    between atoms: _568  and  _571
REMARK  236  A    between atoms: _571  and  _572
REMARK  237  A    between atoms: _577  and  _578
REMARK  238  A    between atoms: _580  and  _582
REMARK  239  A    between atoms: _582  and  _583
REMARK  240  A    between atoms: _582  and  _585
REMARK  241  A    between atoms: _585  and  _586
REMARK  242  A    between atoms: _591  and  _592
REMARK                            x       y       z     vdW  Elec       q    Type
REMARK                         _______ _______ _______ _____ _____    ______ ____
ROOT
ATOM      1  NE  ARG A   1      19.324  71.240  -4.394  0.00  0.00    -0.265 N 
ATOM      2  HE  ARG A   1      19.854  70.466  -4.843  0.00  0.00    +0.259 HD
ATOM      3  CZ  ARG A   1      18.454  71.905  -5.142  0.00  0.00    +0.342 C 
ATOM      4  NH2 ARG A   1      17.751  72.902  -4.620  0.00  0.00    -0.292 N 
ATOM      5 HH21 ARG A   1      17.882  73.164  -3.622  0.00  0.00    +0.255 HD
ATOM      6 HH22 ARG A   1      17.069  73.422  -5.209  0.00  0.00    +0.255 HD
ATOM      7  NH1 ARG A   1      18.284  71.567  -6.415  0.00  0.00    -0.292 N 
ATOM      8 HH11 ARG A   1      18.832  70.783  -6.823  0.00  0.00    +0.255 HD
ATOM      9 HH12 ARG A   1      17.603  72.086  -7.004  0.00  0.00    +0.255 HD
ENDROOT
BRANCH   1  10
ATOM     10  CD  ARG A   1      19.590  71.516  -2.988  0.00  0.00    +0.174 C 
BRANCH  10  11
ATOM     11  CG  ARG A   1      20.769  70.692  -2.491  0.00  0.00    +0.045 C 
BRANCH  11  12
ATOM     12  CB  ARG A   1      22.042  71.097  -3.227  0.00  0.00    +0.029 C 
BRANCH  12  13
ATOM     13  CA  ARG A   1      23.278  70.271  -2.867  0.00  0.00    +0.133 C 
BRANCH  13  14
ATOM     14  N   ARG A   1      23.725  70.586  -1.512  0.00  0.00    -0.239 NA
ATOM     15  H   ARG A   1      23.395  71.461  -1.056  0.00  0.00    +0.142 HD
ENDBRANCH  13  14
BRANCH  13  16
ATOM     16  C   ARG A   1      24.381  70.543  -3.887  0.00  0.00    +0.224 C 
ATOM     17  O   ARG A   1      24.397  69.960  -4.975  0.00  0.00    -0.287 OA
ENDBRANCH  13  16
ENDBRANCH  12  13
ENDBRANCH  11  12
ENDBRANCH  10  11
ENDBRANCH   1  10
TORSDOF 6
REMARK  Name = ../refined-set-2016/3zxz/3zxz_pocket.pdb
REMARK  242 active torsions:
REMARK  status: ('A' for Active; 'I' for Inactive)
REMARK    1  A    between atoms: _1  and  _3
REMARK    2  A    between atoms: _3  and  _4
REMARK    3  A    between atoms: _3  and  _6
REMARK    4  A    between atoms: _9  and  _11
REMARK    5  A    between atoms: _11  and  _12
REMARK    6  A    between atoms: _11  and  _14
REMARK    7  A    between atoms: _14  and  _15
REMARK    8  A    between atoms: _18  and  _20
REMARK    9  A    between atoms: _20  and  _21
REMARK   10  A    between atoms: _23  and  _25
REMARK   11  A    between atoms: _25  and  _26
REMARK   12  A    between atoms: _25  and  _28
REMARK   13  A    between atoms: _28  and  _29
REMARK   14  A    between atoms: _29  and  _30
REMARK   15  A    between atoms: _30  and  _31
REMARK   16  A    between atoms: _40  and  _42
REMARK   17  A    between atoms: _42  and  _43
REMARK   18  A    between atoms: _45  and  _47
REMARK   19  A    between atoms: _47  and  _48
REMARK   20  A    between atoms: _47  and  _50
REMARK   21  A    between atoms: _52  and  _54
REMARK   22  A    between atoms: _54  and  _55
REMARK   23  A    between atoms: _54  and  _57
REMARK   24  A    between atoms: _60  and  _62
REMARK   25  A    between atoms: _62  and  _63
REMARK   26  A    between atoms: _62  and  _65
REMARK   27  A    between atoms: _65  and  _66
REMARK   28  A    between atoms: _71  and  _72
REMARK   29  A    between atoms: _74  and  _76
REMARK   30  A    between atoms: _76  and  _77
REMARK   31  A    between atoms: _76  and  _79
REMARK   32  A    between atoms: _79  and  _80
REMARK   33  A    between atoms: _85  and  _87
REMARK   34  A    between atoms: _87  and  _88
REMARK   35  A    between atoms: _90  and  _92
REMARK   36  A    between atoms: _92  and  _93
REMARK   37  A    between atoms: _92  and  _95
REMARK   38  A    between atoms: _95  and  _96
REMARK   39  A    between atoms: _101  and  _103
REMARK   40  A    between atoms: _103  and  _104
REMARK   41  A    between atoms: _103  and  _106
REMARK   42  A    between atoms: _108  and  _110
REMARK   43  A    between atoms: _110  and  _111
REMARK   44  A    between atoms: _114  and  _116
REMARK   45  A    between atoms: _116  and  _117
REMARK   46  A    between atoms: _116  and  _119
REMARK   47  A    between atoms: _122  and  _124
REMARK   48  A    between atoms: _124  and  _125
REMARK   49  A    between atoms: _124  and  _127
REMARK   50  A    between atoms: _127  and  _128
REMARK   51  A    between atoms: _128  and  _129
REMARK   52  A    between atoms: _129  and  _130
REMARK   53  A    between atoms: _130  and  _131
REMARK   54  A    between atoms: _135  and  _137
REMARK   55  A    between atoms: _137  and  _138
REMARK   56  A    between atoms: _137  and  _140
REMARK   57  A    between atoms: _140  and  _141
REMARK   58  A    between atoms: _143  and  _145
REMARK   59  A    between atoms: _145  and  _146
REMARK   60  A    between atoms: _145  and  _148
REMARK   61  A    between atoms: _148  and  _149
REMARK   62  A    between atoms: _149  and  _150
REMARK   63  A    between atoms: _152  and  _154
REMARK   64  A    between atoms: _154  and  _155
REMARK   65  A    between atoms: _154  and  _157
REMARK   66  A    between atoms: _157  and  _158
REMARK   67  A    between atoms: _161  and  _163
REMARK   68  A    between atoms: _163  and  _164
REMARK   69  A    between atoms: _163  and  _166
REMARK   70  A    between atoms: _166  and  _167
REMARK   71  A    between atoms: _169  and  _171
REMARK   72  A    between atoms: _171  and  _172
REMARK   73  A    between atoms: _171  and  _174
REMARK   74  A    between atoms: _177  and  _179
REMARK   75  A    between atoms: _179  and  _180
REMARK   76  A    between atoms: _179  and  _182
REMARK   77  A    between atoms: _185  and  _187
REMARK   78  A    between atoms: _187  and  _188
REMARK   79  A    between atoms: _187  and  _190
REMARK   80  A    between atoms: _190  and  _191
REMARK   81  A    between atoms: _195  and  _196
REMARK   82  A    between atoms: _201  and  _203
REMARK   83  A    between atoms: _203  and  _204
REMARK   84  A    between atoms: _203  and  _206
REMARK   85  A    between atoms: _206  and  _207
REMARK   86  A    between atoms: _212  and  _213
REMARK   87  A    between atoms: _215  and  _217
REMARK   88  A    between atoms: _217  and  _218
REMARK   89  A    between atoms: _217  and  _220
REMARK   90  A    between atoms: _220  and  _221
REMARK   91  A    between atoms: _221  and  _222
REMARK   92  A    between atoms: _224  and  _226
REMARK   93  A    between atoms: _226  and  _227
REMARK   94  A    between atoms: _226  and  _229
REMARK   95  A    between atoms: _229  and  _230
REMARK   96  A    between atoms: _230  and  _231
REMARK   97  A    between atoms: _231  and  _232
REMARK   98  A    between atoms: _232  and  _233
REMARK   99  A    between atoms: _237  and  _239
REMARK  100  A    between atoms: _239  and  _240
REMARK  101  A    between atoms: _239  and  _242
REMARK  102  A    between atoms: _242  and  _243
REMARK  103  A    between atoms: _248  and  _250
REMARK  104  A    between atoms: _250  and  _251
REMARK  105  A    between atoms: _253  and  _255
REMARK  106  A    between atoms: _255  and  _256
REMARK  107  A    between atoms: _255  and  _258
REMARK  108  A    between atoms: _258  and  _259
REMARK  109  A    between atoms: _262  and  _264
REMARK  110  A    between atoms: _264  and  _265
REMARK  111  A    between atoms: _264  and  _267
REMARK  112  A    between atoms: _267  and  _268
REMARK  113  A    between atoms: _271  and  _273
REMARK  114  A    between atoms: _273  and  _274
REMARK  115  A    between atoms: _273  and  _276
REMARK  116  A    between atoms: _276  and  _277
REMARK  117  A    between atoms: _277  and  _278
REMARK  118  A    between atoms: _278  and  _279
REMARK  119  A    between atoms: _288  and  _290
REMARK  120  A    between atoms: _290  and  _291
REMARK  121  A    between atoms: _290  and  _293
REMARK  122  A    between atoms: _293  and  _294
REMARK  123  A    between atoms: _299  and  _301
REMARK  124  A    between atoms: _301  and  _302
REMARK  125  A    between atoms: _301  and  _304
REMARK  126  A    between atoms: _304  and  _305
REMARK  127  A    between atoms: _311  and  _313
REMARK  128  A    between atoms: _313  and  _314
REMARK  129  A    between atoms: _313  and  _316
REMARK  130  A    between atoms: _316  and  _317
REMARK  131  A    between atoms: _317  and  _318
REMARK  132  A    between atoms: _318  and  _319
REMARK  133  A    between atoms: _328  and  _330
REMARK  134  A    between atoms: _330  and  _331
REMARK  135  A    between atoms: _330  and  _333
REMARK  136  A    between atoms: _333  and  _334
REMARK  137  A    between atoms: _339  and  _341
REMARK  138  A    between atoms: _341  and  _342
REMARK  139  A    between atoms: _341  and  _344
REMARK  140  A    between atoms: _344  and  _345
REMARK  141  A    between atoms: _348  and  _350
REMARK  142  A    between atoms: _350  and  _351
REMARK  143  A    between atoms: _354  and  _356
REMARK  144  A    between atoms: _356  and  _357
REMARK  145  A    between atoms: _360  and  _362
REMARK  146  A    between atoms: _362  and  _363
REMARK  147  A    between atoms: _362  and  _365
REMARK  148  A    between atoms: _365  and  _366
REMARK  149  A    between atoms: _366  and  _367
REMARK  150  A    between atoms: _367  and  _368
REMARK  151  A    between atoms: _377  and  _379
REMARK  152  A    between atoms: _379  and  _380
REMARK  153  A    between atoms: _379  and  _382
REMARK  154  A    between atoms: _382  and  _383
REMARK  155  A    between atoms: _388  and  _390
REMARK  156  A    between atoms: _390  and  _391
REMARK  157  A    between atoms: _390  and  _393
REMARK  158  A    between atoms: _395  and  _397
REMARK  159  A    between atoms: _397  and  _398
REMARK  160  A    between atoms: _397  and  _400
REMARK  161  A    between atoms: _400  and  _401
REMARK  162  A    between atoms: _401  and  _402
REMARK  163  A    between atoms: _404  and  _406
REMARK  164  A    between atoms: _406  and  _407
REMARK  165  A    between atoms: _406  and  _409
REMARK  166  A    between atoms: _409  and  _410
REMARK  167  A    between atoms: _413  and  _415
REMARK  168  A    between atoms: _415  and  _416
REMARK  169  A    between atoms: _415  and  _418
REMARK  170  A    between atoms: _418  and  _419
REMARK  171  A    between atoms: _422  and  _424
REMARK  172  A    between atoms: _424  and  _425
REMARK  173  A    between atoms: _424  and  _427
REMARK  174  A    between atoms: _427  and  _428
REMARK  175  A    between atoms: _428  and  _429
REMARK  176  A    between atoms: _429  and  _430
REMARK  177  A    between atoms: _430  and  _431
REMARK  178  A    between atoms: _435  and  _437
REMARK  179  A    between atoms: _437  and  _438
REMARK  180  A    between atoms: _437  and  _440
REMARK  181  A    between atoms: _443  and  _445
REMARK  182  A    between atoms: _445  and  _446
REMARK  183  A    between atoms: _449  and  _451
REMARK  184  A    between atoms: _451  and  _452
REMARK  185  A    between atoms: _451  and  _454
REMARK  186  A    between atoms: _454  and  _455
REMARK  187  A    between atoms: _458  and  _460
REMARK  188  A    between atoms: _460  and  _461
REMARK  189  A    between atoms: _460  and  _463
REMARK  190  A    between atoms: _463  and  _464
REMARK  191  A    between atoms: _470  and  _472
REMARK  192  A    between atoms: _472  and  _473
REMARK  193  A    between atoms: _472  and  _475
REMARK  194  A    between atoms: _475  and  _476
REMARK  195  A    between atoms: _479  and  _481
REMARK  196  A    between atoms: _481  and  _482
REMARK  197  A    between atoms: _485  and  _487
REMARK  198  A    between atoms: _487  and  _488
REMARK  199  A    between atoms: _487  and  _490
REMARK  200  A    between atoms: _490  and  _491
REMARK  201  A    between atoms: _491  and  _492
REMARK  202  A    between atoms: _492  and  _493
REMARK  203  A    between atoms: _502  and  _504
REMARK  204  A    between atoms: _504  and  _505
REMARK  205  A    between atoms: _504  and  _507
REMARK  206  A    between atoms: _507  and  _508
REMARK  207  A    between atoms: _511  and  _513
REMARK  208  A    between atoms: _513  and  _514
REMARK  209  A    between atoms: _513  and  _516
REMARK  210  A    between atoms: _516  and  _517
REMARK  211  A    between atoms: _517  and  _518
REMARK  212  A    between atoms: _520  and  _522
REMARK  213  A    between atoms: _522  and  _523
REMARK  214  A    between atoms: _522  and  _525
REMARK  215  A    between atoms: _525  and  _526
REMARK  216  A    between atoms: _531  and  _532
REMARK  217  A    between atoms: _534  and  _536
REMARK  218  A    between atoms: _536  and  _537
REMARK  219  A    between atoms: _536  and  _539
REMARK  220  A    between atoms: _539  and  _540
REMARK  221  A    between atoms: _543  and  _545
REMARK  222  A    between atoms: _545  and  _546
REMARK  223  A    between atoms: _545  and  _548
REMARK  224  A    between atoms: _548  and  _549
REMARK  225  A    between atoms: _549  and  _550
REMARK  226  A    between atoms: _550  and  _551
REMARK  227  A    between atoms: _551  and  _552
REMARK  228  A    between atoms: _556  and  _558
REMARK  229  A    between atoms: _558  and  _559
REMARK  230  A    between atoms: _558  and  _561
REMARK  231  A    between atoms: _561  and  _562
REMARK  232  A    between atoms: _562  and  _563
REMARK  233  A    between atoms: _566  and  _568
REMARK  234  A    between atoms: _568  and  _569
REMARK  235  A    between atoms: _568  and  _571
REMARK  236  A    between atoms: _571  and  _572
REMARK  237  A    between atoms: _577  and  _578
REMARK  238  A    between atoms: _580  and  _582
REMARK  239  A    between atoms: _582  and  _583
REMARK  240  A    between atoms: _582  and  _585
REMARK  241  A    between atoms: _585  and  _586
REMARK  242  A    between atoms: _591  and  _592
REMARK                            x       y       z     vdW  Elec       q    Type
REMARK                         _______ _______ _______ _____ _____    ______ ____
ROOT
ATOM      1  CB  HIS A   1      12.414  76.866  15.739  0.00  0.00    +0.072 C 
ENDROOT
BRANCH   1   2
ATOM      2  CG  HIS A   1      13.087  77.451  14.536  0.00  0.00    +0.082 A 
ATOM      3  ND1 HIS A   1      14.366  77.964  14.575  0.00  0.00    -0.227 NA
ATOM      4  CE1 HIS A   1      14.689  78.423  13.380  0.00  0.00    +0.199 A 
ATOM      5  NE2 HIS A   1      13.667  78.226  12.567  0.00  0.00    -0.221 NA
ATOM      6  CD2 HIS A   1      12.653  77.618  13.266  0.00  0.00    +0.115 A 
ENDBRANCH   1   2
BRANCH   1   7
ATOM      7  CA  HIS A   1      11.282  77.737  16.293  0.00  0.00    +0.139 C 
BRANCH   7   8
ATOM      8  N   HIS A   1      10.810  77.189  17.559  0.00  0.00    -0.239 NA
ATOM      9  H   HIS A   1      11.070  76.216  17.820  0.00  0.00    +0.142 HD
ENDBRANCH   7   8
BRANCH   7  10
ATOM     10  C   HIS A   1      10.167  77.850  15.256  0.00  0.00    +0.224 C 
ATOM     11  O   HIS A   1       9.920  78.931  14.724  0.00  0.00    -0.287 OA
ENDBRANCH   7  10
ENDBRANCH   1   7
TORSDOF 4
REMARK  Name = ../refined-set-2016/3zxz/3zxz_pocket.pdb
REMARK  242 active torsions:
REMARK  status: ('A' for Active; 'I' for Inactive)
REMARK    1  A    between atoms: _1  and  _3
REMARK    2  A    between atoms: _3  and  _4
REMARK    3  A    between atoms: _3  and  _6
REMARK    4  A    between atoms: _9  and  _11
REMARK    5  A    between atoms: _11  and  _12
REMARK    6  A    between atoms: _11  and  _14
REMARK    7  A    between atoms: _14  and  _15
REMARK    8  A    between atoms: _18  and  _20
REMARK    9  A    between atoms: _20  and  _21
REMARK   10  A    between atoms: _23  and  _25
REMARK   11  A    between atoms: _25  and  _26
REMARK   12  A    between atoms: _25  and  _28
REMARK   13  A    between atoms: _28  and  _29
REMARK   14  A    between atoms: _29  and  _30
REMARK   15  A    between atoms: _30  and  _31
REMARK   16  A    between atoms: _40  and  _42
REMARK   17  A    between atoms: _42  and  _43
REMARK   18  A    between atoms: _45  and  _47
REMARK   19  A    between atoms: _47  and  _48
REMARK   20  A    between atoms: _47  and  _50
REMARK   21  A    between atoms: _52  and  _54
REMARK   22  A    between atoms: _54  and  _55
REMARK   23  A    between atoms: _54  and  _57
REMARK   24  A    between atoms: _60  and  _62
REMARK   25  A    between atoms: _62  and  _63
REMARK   26  A    between atoms: _62  and  _65
REMARK   27  A    between atoms: _65  and  _66
REMARK   28  A    between atoms: _71  and  _72
REMARK   29  A    between atoms: _74  and  _76
REMARK   30  A    between atoms: _76  and  _77
REMARK   31  A    between atoms: _76  and  _79
REMARK   32  A    between atoms: _79  and  _80
REMARK   33  A    between atoms: _85  and  _87
REMARK   34  A    between atoms: _87  and  _88
REMARK   35  A    between atoms: _90  and  _92
REMARK   36  A    between atoms: _92  and  _93
REMARK   37  A    between atoms: _92  and  _95
REMARK   38  A    between atoms: _95  and  _96
REMARK   39  A    between atoms: _101  and  _103
REMARK   40  A    between atoms: _103  and  _104
REMARK   41  A    between atoms: _103  and  _106
REMARK   42  A    between atoms: _108  and  _110
REMARK   43  A    between atoms: _110  and  _111
REMARK   44  A    between atoms: _114  and  _116
REMARK   45  A    between atoms: _116  and  _117
REMARK   46  A    between atoms: _116  and  _119
REMARK   47  A    between atoms: _122  and  _124
REMARK   48  A    between atoms: _124  and  _125
REMARK   49  A    between atoms: _124  and  _127
REMARK   50  A    between atoms: _127  and  _128
REMARK   51  A    between atoms: _128  and  _129
REMARK   52  A    between atoms: _129  and  _130
REMARK   53  A    between atoms: _130  and  _131
REMARK   54  A    between atoms: _135  and  _137
REMARK   55  A    between atoms: _137  and  _138
REMARK   56  A    between atoms: _137  and  _140
REMARK   57  A    between atoms: _140  and  _141
REMARK   58  A    between atoms: _143  and  _145
REMARK   59  A    between atoms: _145  and  _146
REMARK   60  A    between atoms: _145  and  _148
REMARK   61  A    between atoms: _148  and  _149
REMARK   62  A    between atoms: _149  and  _150
REMARK   63  A    between atoms: _152  and  _154
REMARK   64  A    between atoms: _154  and  _155
REMARK   65  A    between atoms: _154  and  _157
REMARK   66  A    between atoms: _157  and  _158
REMARK   67  A    between atoms: _161  and  _163
REMARK   68  A    between atoms: _163  and  _164
REMARK   69  A    between atoms: _163  and  _166
REMARK   70  A    between atoms: _166  and  _167
REMARK   71  A    between atoms: _169  and  _171
REMARK   72  A    between atoms: _171  and  _172
REMARK   73  A    between atoms: _171  and  _174
REMARK   74  A    between atoms: _177  and  _179
REMARK   75  A    between atoms: _179  and  _180
REMARK   76  A    between atoms: _179  and  _182
REMARK   77  A    between atoms: _185  and  _187
REMARK   78  A    between atoms: _187  and  _188
REMARK   79  A    between atoms: _187  and  _190
REMARK   80  A    between atoms: _190  and  _191
REMARK   81  A    between atoms: _195  and  _196
REMARK   82  A    between atoms: _201  and  _203
REMARK   83  A    between atoms: _203  and  _204
REMARK   84  A    between atoms: _203  and  _206
REMARK   85  A    between atoms: _206  and  _207
REMARK   86  A    between atoms: _212  and  _213
REMARK   87  A    between atoms: _215  and  _217
REMARK   88  A    between atoms: _217  and  _218
REMARK   89  A    between atoms: _217  and  _220
REMARK   90  A    between atoms: _220  and  _221
REMARK   91  A    between atoms: _221  and  _222
REMARK   92  A    between atoms: _224  and  _226
REMARK   93  A    between atoms: _226  and  _227
REMARK   94  A    between atoms: _226  and  _229
REMARK   95  A    between atoms: _229  and  _230
REMARK   96  A    between atoms: _230  and  _231
REMARK   97  A    between atoms: _231  and  _232
REMARK   98  A    between atoms: _232  and  _233
REMARK   99  A    between atoms: _237  and  _239
REMARK  100  A    between atoms: _239  and  _240
REMARK  101  A    between atoms: _239  and  _242
REMARK  102  A    between atoms: _242  and  _243
REMARK  103  A    between atoms: _248  and  _250
REMARK  104  A    between atoms: _250  and  _251
REMARK  105  A    between atoms: _253  and  _255
REMARK  106  A    between atoms: _255  and  _256
REMARK  107  A    between atoms: _255  and  _258
REMARK  108  A    between atoms: _258  and  _259
REMARK  109  A    between atoms: _262  and  _264
REMARK  110  A    between atoms: _264  and  _265
REMARK  111  A    between atoms: _264  and  _267
REMARK  112  A    between atoms: _267  and  _268
REMARK  113  A    between atoms: _271  and  _273
REMARK  114  A    between atoms: _273  and  _274
REMARK  115  A    between atoms: _273  and  _276
REMARK  116  A    between atoms: _276  and  _277
REMARK  117  A    between atoms: _277  and  _278
REMARK  118  A    between atoms: _278  and  _279
REMARK  119  A    between atoms: _288  and  _290
REMARK  120  A    between atoms: _290  and  _291
REMARK  121  A    between atoms: _290  and  _293
REMARK  122  A    between atoms: _293  and  _294
REMARK  123  A    between atoms: _299  and  _301
REMARK  124  A    between atoms: _301  and  _302
REMARK  125  A    between atoms: _301  and  _304
REMARK  126  A    between atoms: _304  and  _305
REMARK  127  A    between atoms: _311  and  _313
REMARK  128  A    between atoms: _313  and  _314
REMARK  129  A    between atoms: _313  and  _316
REMARK  130  A    between atoms: _316  and  _317
REMARK  131  A    between atoms: _317  and  _318
REMARK  132  A    between atoms: _318  and  _319
REMARK  133  A    between atoms: _328  and  _330
REMARK  134  A    between atoms: _330  and  _331
REMARK  135  A    between atoms: _330  and  _333
REMARK  136  A    between atoms: _333  and  _334
REMARK  137  A    between atoms: _339  and  _341
REMARK  138  A    between atoms: _341  and  _342
REMARK  139  A    between atoms: _341  and  _344
REMARK  140  A    between atoms: _344  and  _345
REMARK  141  A    between atoms: _348  and  _350
REMARK  142  A    between atoms: _350  and  _351
REMARK  143  A    between atoms: _354  and  _356
REMARK  144  A    between atoms: _356  and  _357
REMARK  145  A    between atoms: _360  and  _362
REMARK  146  A    between atoms: _362  and  _363
REMARK  147  A    between atoms: _362  and  _365
REMARK  148  A    between atoms: _365  and  _366
REMARK  149  A    between atoms: _366  and  _367
REMARK  150  A    between atoms: _367  and  _368
REMARK  151  A    between atoms: _377  and  _379
REMARK  152  A    between atoms: _379  and  _380
REMARK  153  A    between atoms: _379  and  _382
REMARK  154  A    between atoms: _382  and  _383
REMARK  155  A    between atoms: _388  and  _390
REMARK  156  A    between atoms: _390  and  _391
REMARK  157  A    between atoms: _390  and  _393
REMARK  158  A    between atoms: _395  and  _397
REMARK  159  A    between atoms: _397  and  _398
REMARK  160  A    between atoms: _397  and  _400
REMARK  161  A    between atoms: _400  and  _401
REMARK  162  A    between atoms: _401  and  _402
REMARK  163  A    between atoms: _404  and  _406
REMARK  164  A    between atoms: _406  and  _407
REMARK  165  A    between atoms: _406  and  _409
REMARK  166  A    between atoms: _409  and  _410
REMARK  167  A    between atoms: _413  and  _415
REMARK  168  A    between atoms: _415  and  _416
REMARK  169  A    between atoms: _415  and  _418
REMARK  170  A    between atoms: _418  and  _419
REMARK  171  A    between atoms: _422  and  _424
REMARK  172  A    between atoms: _424  and  _425
REMARK  173  A    between atoms: _424  and  _427
REMARK  174  A    between atoms: _427  and  _428
REMARK  175  A    between atoms: _428  and  _429
REMARK  176  A    between atoms: _429  and  _430
REMARK  177  A    between atoms: _430  and  _431
REMARK  178  A    between atoms: _435  and  _437
REMARK  179  A    between atoms: _437  and  _438
REMARK  180  A    between atoms: _437  and  _440
REMARK  181  A    between atoms: _443  and  _445
REMARK  182  A    between atoms: _445  and  _446
REMARK  183  A    between atoms: _449  and  _451
REMARK  184  A    between atoms: _451  and  _452
REMARK  185  A    between atoms: _451  and  _454
REMARK  186  A    between atoms: _454  and  _455
REMARK  187  A    between atoms: _458  and  _460
REMARK  188  A    between atoms: _460  and  _461
REMARK  189  A    between atoms: _460  and  _463
REMARK  190  A    between atoms: _463  and  _464
REMARK  191  A    between atoms: _470  and  _472
REMARK  192  A    between atoms: _472  and  _473
REMARK  193  A    between atoms: _472  and  _475
REMARK  194  A    between atoms: _475  and  _476
REMARK  195  A    between atoms: _479  and  _481
REMARK  196  A    between atoms: _481  and  _482
REMARK  197  A    between atoms: _485  and  _487
REMARK  198  A    between atoms: _487  and  _488
REMARK  199  A    between atoms: _487  and  _490
REMARK  200  A    between atoms: _490  and  _491
REMARK  201  A    between atoms: _491  and  _492
REMARK  202  A    between atoms: _492  and  _493
REMARK  203  A    between atoms: _502  and  _504
REMARK  204  A    between atoms: _504  and  _505
REMARK  205  A    between atoms: _504  and  _507
REMARK  206  A    between atoms: _507  and  _508
REMARK  207  A    between atoms: _511  and  _513
REMARK  208  A    between atoms: _513  and  _514
REMARK  209  A    between atoms: _513  and  _516
REMARK  210  A    between atoms: _516  and  _517
REMARK  211  A    between atoms: _517  and  _518
REMARK  212  A    between atoms: _520  and  _522
REMARK  213  A    between atoms: _522  and  _523
REMARK  214  A    between atoms: _522  and  _525
REMARK  215  A    between atoms: _525  and  _526
REMARK  216  A    between atoms: _531  and  _532
REMARK  217  A    between atoms: _534  and  _536
REMARK  218  A    between atoms: _536  and  _537
REMARK  219  A    between atoms: _536  and  _539
REMARK  220  A    between atoms: _539  and  _540
REMARK  221  A    between atoms: _543  and  _545
REMARK  222  A    between atoms: _545  and  _546
REMARK  223  A    between atoms: _545  and  _548
REMARK  224  A    between atoms: _548  and  _549
REMARK  225  A    between atoms: _549  and  _550
REMARK  226  A    between atoms: _550  and  _551
REMARK  227  A    between atoms: _551  and  _552
REMARK  228  A    between atoms: _556  and  _558
REMARK  229  A    between atoms: _558  and  _559
REMARK  230  A    between atoms: _558  and  _561
REMARK  231  A    between atoms: _561  and  _562
REMARK  232  A    between atoms: _562  and  _563
REMARK  233  A    between atoms: _566  and  _568
REMARK  234  A    between atoms: _568  and  _569
REMARK  235  A    between atoms: _568  and  _571
REMARK  236  A    between atoms: _571  and  _572
REMARK  237  A    between atoms: _577  and  _578
REMARK  238  A    between atoms: _580  and  _582
REMARK  239  A    between atoms: _582  and  _583
REMARK  240  A    between atoms: _582  and  _585
REMARK  241  A    between atoms: _585  and  _586
REMARK  242  A    between atoms: _591  and  _592
REMARK                            x       y       z     vdW  Elec       q    Type
REMARK                         _______ _______ _______ _____ _____    ______ ____
ROOT
ATOM      1  CA  ASP A   1      10.288  76.609  10.771  0.00  0.00    +0.144 C 
ENDROOT
BRANCH   1   2
ATOM      2  N   ASP A   1       9.921  76.748  12.185  0.00  0.00    -0.239 NA
ATOM      3  H   ASP A   1      10.648  77.004  12.883  0.00  0.00    +0.142 HD
ENDBRANCH   1   2
BRANCH   1   4
ATOM      4  C   ASP A   1      11.702  76.052  10.609  0.00  0.00    +0.225 C 
ATOM      5  O   ASP A   1      12.491  76.563   9.818  0.00  0.00    -0.287 OA
ENDBRANCH   1   4
BRANCH   1   6
ATOM      6  CB  ASP A   1      10.181  77.970  10.061  0.00  0.00    +0.139 C 
BRANCH   6   7
ATOM      7  CG  ASP A   1      10.183  77.853   8.533  0.00  0.00    +0.367 C 
ATOM      8  OD2 ASP A   1      10.115  76.724   7.993  0.00  0.00    -0.246 OA
ATOM      9  OD1 ASP A   1      10.250  78.909   7.868  0.00  0.00    -0.246 OA
ENDBRANCH   6   7
ENDBRANCH   1   6
TORSDOF 4
REMARK  Name = ../refined-set-2016/3zxz/3zxz_pocket.pdb
REMARK  242 active torsions:
REMARK  status: ('A' for Active; 'I' for Inactive)
REMARK    1  A    between atoms: _1  and  _3
REMARK    2  A    between atoms: _3  and  _4
REMARK    3  A    between atoms: _3  and  _6
REMARK    4  A    between atoms: _9  and  _11
REMARK    5  A    between atoms: _11  and  _12
REMARK    6  A    between atoms: _11  and  _14
REMARK    7  A    between atoms: _14  and  _15
REMARK    8  A    between atoms: _18  and  _20
REMARK    9  A    between atoms: _20  and  _21
REMARK   10  A    between atoms: _23  and  _25
REMARK   11  A    between atoms: _25  and  _26
REMARK   12  A    between atoms: _25  and  _28
REMARK   13  A    between atoms: _28  and  _29
REMARK   14  A    between atoms: _29  and  _30
REMARK   15  A    between atoms: _30  and  _31
REMARK   16  A    between atoms: _40  and  _42
REMARK   17  A    between atoms: _42  and  _43
REMARK   18  A    between atoms: _45  and  _47
REMARK   19  A    between atoms: _47  and  _48
REMARK   20  A    between atoms: _47  and  _50
REMARK   21  A    between atoms: _52  and  _54
REMARK   22  A    between atoms: _54  and  _55
REMARK   23  A    between atoms: _54  and  _57
REMARK   24  A    between atoms: _60  and  _62
REMARK   25  A    between atoms: _62  and  _63
REMARK   26  A    between atoms: _62  and  _65
REMARK   27  A    between atoms: _65  and  _66
REMARK   28  A    between atoms: _71  and  _72
REMARK   29  A    between atoms: _74  and  _76
REMARK   30  A    between atoms: _76  and  _77
REMARK   31  A    between atoms: _76  and  _79
REMARK   32  A    between atoms: _79  and  _80
REMARK   33  A    between atoms: _85  and  _87
REMARK   34  A    between atoms: _87  and  _88
REMARK   35  A    between atoms: _90  and  _92
REMARK   36  A    between atoms: _92  and  _93
REMARK   37  A    between atoms: _92  and  _95
REMARK   38  A    between atoms: _95  and  _96
REMARK   39  A    between atoms: _101  and  _103
REMARK   40  A    between atoms: _103  and  _104
REMARK   41  A    between atoms: _103  and  _106
REMARK   42  A    between atoms: _108  and  _110
REMARK   43  A    between atoms: _110  and  _111
REMARK   44  A    between atoms: _114  and  _116
REMARK   45  A    between atoms: _116  and  _117
REMARK   46  A    between atoms: _116  and  _119
REMARK   47  A    between atoms: _122  and  _124
REMARK   48  A    between atoms: _124  and  _125
REMARK   49  A    between atoms: _124  and  _127
REMARK   50  A    between atoms: _127  and  _128
REMARK   51  A    between atoms: _128  and  _129
REMARK   52  A    between atoms: _129  and  _130
REMARK   53  A    between atoms: _130  and  _131
REMARK   54  A    between atoms: _135  and  _137
REMARK   55  A    between atoms: _137  and  _138
REMARK   56  A    between atoms: _137  and  _140
REMARK   57  A    between atoms: _140  and  _141
REMARK   58  A    between atoms: _143  and  _145
REMARK   59  A    between atoms: _145  and  _146
REMARK   60  A    between atoms: _145  and  _148
REMARK   61  A    between atoms: _148  and  _149
REMARK   62  A    between atoms: _149  and  _150
REMARK   63  A    between atoms: _152  and  _154
REMARK   64  A    between atoms: _154  and  _155
REMARK   65  A    between atoms: _154  and  _157
REMARK   66  A    between atoms: _157  and  _158
REMARK   67  A    between atoms: _161  and  _163
REMARK   68  A    between atoms: _163  and  _164
REMARK   69  A    between atoms: _163  and  _166
REMARK   70  A    between atoms: _166  and  _167
REMARK   71  A    between atoms: _169  and  _171
REMARK   72  A    between atoms: _171  and  _172
REMARK   73  A    between atoms: _171  and  _174
REMARK   74  A    between atoms: _177  and  _179
REMARK   75  A    between atoms: _179  and  _180
REMARK   76  A    between atoms: _179  and  _182
REMARK   77  A    between atoms: _185  and  _187
REMARK   78  A    between atoms: _187  and  _188
REMARK   79  A    between atoms: _187  and  _190
REMARK   80  A    between atoms: _190  and  _191
REMARK   81  A    between atoms: _195  and  _196
REMARK   82  A    between atoms: _201  and  _203
REMARK   83  A    between atoms: _203  and  _204
REMARK   84  A    between atoms: _203  and  _206
REMARK   85  A    between atoms: _206  and  _207
REMARK   86  A    between atoms: _212  and  _213
REMARK   87  A    between atoms: _215  and  _217
REMARK   88  A    between atoms: _217  and  _218
REMARK   89  A    between atoms: _217  and  _220
REMARK   90  A    between atoms: _220  and  _221
REMARK   91  A    between atoms: _221  and  _222
REMARK   92  A    between atoms: _224  and  _226
REMARK   93  A    between atoms: _226  and  _227
REMARK   94  A    between atoms: _226  and  _229
REMARK   95  A    between atoms: _229  and  _230
REMARK   96  A    between atoms: _230  and  _231
REMARK   97  A    between atoms: _231  and  _232
REMARK   98  A    between atoms: _232  and  _233
REMARK   99  A    between atoms: _237  and  _239
REMARK  100  A    between atoms: _239  and  _240
REMARK  101  A    between atoms: _239  and  _242
REMARK  102  A    between atoms: _242  and  _243
REMARK  103  A    between atoms: _248  and  _250
REMARK  104  A    between atoms: _250  and  _251
REMARK  105  A    between atoms: _253  and  _255
REMARK  106  A    between atoms: _255  and  _256
REMARK  107  A    between atoms: _255  and  _258
REMARK  108  A    between atoms: _258  and  _259
REMARK  109  A    between atoms: _262  and  _264
REMARK  110  A    between atoms: _264  and  _265
REMARK  111  A    between atoms: _264  and  _267
REMARK  112  A    between atoms: _267  and  _268
REMARK  113  A    between atoms: _271  and  _273
REMARK  114  A    between atoms: _273  and  _274
REMARK  115  A    between atoms: _273  and  _276
REMARK  116  A    between atoms: _276  and  _277
REMARK  117  A    between atoms: _277  and  _278
REMARK  118  A    between atoms: _278  and  _279
REMARK  119  A    between atoms: _288  and  _290
REMARK  120  A    between atoms: _290  and  _291
REMARK  121  A    between atoms: _290  and  _293
REMARK  122  A    between atoms: _293  and  _294
REMARK  123  A    between atoms: _299  and  _301
REMARK  124  A    between atoms: _301  and  _302
REMARK  125  A    between atoms: _301  and  _304
REMARK  126  A    between atoms: _304  and  _305
REMARK  127  A    between atoms: _311  and  _313
REMARK  128  A    between atoms: _313  and  _314
REMARK  129  A    between atoms: _313  and  _316
REMARK  130  A    between atoms: _316  and  _317
REMARK  131  A    between atoms: _317  and  _318
REMARK  132  A    between atoms: _318  and  _319
REMARK  133  A    between atoms: _328  and  _330
REMARK  134  A    between atoms: _330  and  _331
REMARK  135  A    between atoms: _330  and  _333
REMARK  136  A    between atoms: _333  and  _334
REMARK  137  A    between atoms: _339  and  _341
REMARK  138  A    between atoms: _341  and  _342
REMARK  139  A    between atoms: _341  and  _344
REMARK  140  A    between atoms: _344  and  _345
REMARK  141  A    between atoms: _348  and  _350
REMARK  142  A    between atoms: _350  and  _351
REMARK  143  A    between atoms: _354  and  _356
REMARK  144  A    between atoms: _356  and  _357
REMARK  145  A    between atoms: _360  and  _362
REMARK  146  A    between atoms: _362  and  _363
REMARK  147  A    between atoms: _362  and  _365
REMARK  148  A    between atoms: _365  and  _366
REMARK  149  A    between atoms: _366  and  _367
REMARK  150  A    between atoms: _367  and  _368
REMARK  151  A    between atoms: _377  and  _379
REMARK  152  A    between atoms: _379  and  _380
REMARK  153  A    between atoms: _379  and  _382
REMARK  154  A    between atoms: _382  and  _383
REMARK  155  A    between atoms: _388  and  _390
REMARK  156  A    between atoms: _390  and  _391
REMARK  157  A    between atoms: _390  and  _393
REMARK  158  A    between atoms: _395  and  _397
REMARK  159  A    between atoms: _397  and  _398
REMARK  160  A    between atoms: _397  and  _400
REMARK  161  A    between atoms: _400  and  _401
REMARK  162  A    between atoms: _401  and  _402
REMARK  163  A    between atoms: _404  and  _406
REMARK  164  A    between atoms: _406  and  _407
REMARK  165  A    between atoms: _406  and  _409
REMARK  166  A    between atoms: _409  and  _410
REMARK  167  A    between atoms: _413  and  _415
REMARK  168  A    between atoms: _415  and  _416
REMARK  169  A    between atoms: _415  and  _418
REMARK  170  A    between atoms: _418  and  _419
REMARK  171  A    between atoms: _422  and  _424
REMARK  172  A    between atoms: _424  and  _425
REMARK  173  A    between atoms: _424  and  _427
REMARK  174  A    between atoms: _427  and  _428
REMARK  175  A    between atoms: _428  and  _429
REMARK  176  A    between atoms: _429  and  _430
REMARK  177  A    between atoms: _430  and  _431
REMARK  178  A    between atoms: _435  and  _437
REMARK  179  A    between atoms: _437  and  _438
REMARK  180  A    between atoms: _437  and  _440
REMARK  181  A    between atoms: _443  and  _445
REMARK  182  A    between atoms: _445  and  _446
REMARK  183  A    between atoms: _449  and  _451
REMARK  184  A    between atoms: _451  and  _452
REMARK  185  A    between atoms: _451  and  _454
REMARK  186  A    between atoms: _454  and  _455
REMARK  187  A    between atoms: _458  and  _460
REMARK  188  A    between atoms: _460  and  _461
REMARK  189  A    between atoms: _460  and  _463
REMARK  190  A    between atoms: _463  and  _464
REMARK  191  A    between atoms: _470  and  _472
REMARK  192  A    between atoms: _472  and  _473
REMARK  193  A    between atoms: _472  and  _475
REMARK  194  A    between atoms: _475  and  _476
REMARK  195  A    between atoms: _479  and  _481
REMARK  196  A    between atoms: _481  and  _482
REMARK  197  A    between atoms: _485  and  _487
REMARK  198  A    between atoms: _487  and  _488
REMARK  199  A    between atoms: _487  and  _490
REMARK  200  A    between atoms: _490  and  _491
REMARK  201  A    between atoms: _491  and  _492
REMARK  202  A    between atoms: _492  and  _493
REMARK  203  A    between atoms: _502  and  _504
REMARK  204  A    between atoms: _504  and  _505
REMARK  205  A    between atoms: _504  and  _507
REMARK  206  A    between atoms: _507  and  _508
REMARK  207  A    between atoms: _511  and  _513
REMARK  208  A    between atoms: _513  and  _514
REMARK  209  A    between atoms: _513  and  _516
REMARK  210  A    between atoms: _516  and  _517
REMARK  211  A    between atoms: _517  and  _518
REMARK  212  A    between atoms: _520  and  _522
REMARK  213  A    between atoms: _522  and  _523
REMARK  214  A    between atoms: _522  and  _525
REMARK  215  A    between atoms: _525  and  _526
REMARK  216  A    between atoms: _531  and  _532
REMARK  217  A    between atoms: _534  and  _536
REMARK  218  A    between atoms: _536  and  _537
REMARK  219  A    between atoms: _536  and  _539
REMARK  220  A    between atoms: _539  and  _540
REMARK  221  A    between atoms: _543  and  _545
REMARK  222  A    between atoms: _545  and  _546
REMARK  223  A    between atoms: _545  and  _548
REMARK  224  A    between atoms: _548  and  _549
REMARK  225  A    between atoms: _549  and  _550
REMARK  226  A    between atoms: _550  and  _551
REMARK  227  A    between atoms: _551  and  _552
REMARK  228  A    between atoms: _556  and  _558
REMARK  229  A    between atoms: _558  and  _559
REMARK  230  A    between atoms: _558  and  _561
REMARK  231  A    between atoms: _561  and  _562
REMARK  232  A    between atoms: _562  and  _563
REMARK  233  A    between atoms: _566  and  _568
REMARK  234  A    between atoms: _568  and  _569
REMARK  235  A    between atoms: _568  and  _571
REMARK  236  A    between atoms: _571  and  _572
REMARK  237  A    between atoms: _577  and  _578
REMARK  238  A    between atoms: _580  and  _582
REMARK  239  A    between atoms: _582  and  _583
REMARK  240  A    between atoms: _582  and  _585
REMARK  241  A    between atoms: _585  and  _586
REMARK  242  A    between atoms: _591  and  _592
REMARK                            x       y       z     vdW  Elec       q    Type
REMARK                         _______ _______ _______ _____ _____    ______ ____
ROOT
ATOM      1  CA  ASN A   4      16.868  77.765   7.365  0.00  0.00    +0.158 C 
ENDROOT
BRANCH   1   2
ATOM      2  C   ASN A   4      17.984  77.650   8.393  0.00  0.00    +0.241 C 
ATOM      3  O   ASN A   4      17.884  78.202   9.492  0.00  0.00    -0.273 OA
ATOM      4  N   CYS A   5      19.037  76.924   8.036  0.00  0.00    -0.296 N 
ATOM      5  H   CYS A   5      18.981  76.339   7.178  0.00  0.00    +0.150 HD
BRANCH   4   6
ATOM      6  CA  CYS A   5      20.268  76.925   8.815  0.00  0.00    +0.160 C 
BRANCH   6   7
ATOM      7  C   CYS A   5      21.384  77.484   7.939  0.00  0.00    +0.242 C 
ATOM      8  N   MET A   6      22.249  78.307   8.524  0.00  0.00    -0.297 N 
ATOM      9  H   MET A   6      22.149  78.512   9.539  0.00  0.00    +0.150 HD
ATOM     10  O   CYS A   5      21.451  77.184   6.748  0.00  0.00    -0.273 OA
BRANCH   8  11
ATOM     11  CA  MET A   6      23.337  78.930   7.774  0.00  0.00    +0.149 C 
BRANCH  11  12
ATOM     12  C   MET A   6      24.689  78.355   8.202  0.00  0.00    +0.241 C 
ATOM     13  O   MET A   6      24.811  77.767   9.282  0.00  0.00    -0.273 OA
ATOM     14  N   LEU A   7      25.694  78.526   7.345  0.00  0.00    -0.297 N 
ATOM     15  H   LEU A   7      25.506  79.026   6.453  0.00  0.00    +0.150 HD
BRANCH  14  16
ATOM     16  CA  LEU A   7      27.051  78.041   7.603  0.00  0.00    +0.149 C 
BRANCH  16  17
ATOM     17  C   LEU A   7      28.029  79.213   7.524  0.00  0.00    +0.241 C 
ATOM     18  N   ASP A   8      28.780  79.453   8.597  0.00  0.00    -0.298 N 
ATOM     19  H   ASP A   8      28.703  78.834   9.429  0.00  0.00    +0.150 HD
ATOM     20  O   LEU A   7      28.107  79.888   6.495  0.00  0.00    -0.273 OA
BRANCH  18  21
ATOM     21  CA  ASP A   8      29.710  80.577   8.616  0.00  0.00    +0.148 C 
BRANCH  21  22
ATOM     22  C   ASP A   8      31.091  80.195   8.078  0.00  0.00    +0.227 C 
ATOM     23  O   ASP A   8      31.284  79.089   7.579  0.00  0.00    -0.286 OA
ENDBRANCH  21  22
BRANCH  21  24
ATOM     24  CB  ASP A   8      29.813  81.161  10.034  0.00  0.00    +0.142 C 
BRANCH  24  25
ATOM     25  CG  ASP A   8      30.659  80.313  10.978  0.00  0.00    +0.367 C 
ATOM     26  OD2 ASP A   8      30.731  80.674  12.173  0.00  0.00    -0.246 OA
ATOM     27  OD1 ASP A   8      31.250  79.301  10.542  0.00  0.00    -0.246 OA
ENDBRANCH  24  25
ENDBRANCH  21  24
ENDBRANCH  18  21
ENDBRANCH  16  17
BRANCH  16  28
ATOM     28  CB  LEU A   7      27.451  76.999   6.555  0.00  0.00    +0.029 C 
BRANCH  28  29
ATOM     29  CG  LEU A   7      27.506  75.518   6.933  0.00  0.00    +0.002 C 
ATOM     30  CD2 LEU A   7      28.337  75.329   8.190  0.00  0.00    +0.000 C 
ATOM     31  CD1 LEU A   7      28.120  74.732   5.777  0.00  0.00    +0.000 C 
ENDBRANCH  28  29
ENDBRANCH  16  28
ENDBRANCH  14  16
ENDBRANCH  11  12
BRANCH  11  32
ATOM     32  CB  MET A   6      23.330  80.448   7.990  0.00  0.00    +0.041 C 
BRANCH  32  33
ATOM     33  CG  MET A   6      21.971  81.105   7.785  0.00  0.00    +0.060 C 
BRANCH  33  34
ATOM     34  SD  MET A   6      21.349  80.969   6.090  0.00  0.00    -0.139 S 
ATOM     35  CE  MET A   6      22.514  82.020   5.222  0.00  0.00    +0.069 C 
ENDBRANCH  33  34
ENDBRANCH  32  33
ENDBRANCH  11  32
ENDBRANCH   8  11
ENDBRANCH   6   7
BRANCH   6  36
ATOM     36  CB  CYS A   5      20.610  75.502   9.273  0.00  0.00    +0.098 C 
ATOM     37  SG  CYS A   5      19.365  74.759  10.398  0.00  0.00    -0.080 S 
ENDBRANCH   6  36
ENDBRANCH   4   6
ENDBRANCH   1   2
BRANCH   1  39
ATOM     38  C   ARG A   3      17.288  77.031   5.077  0.00  0.00    +0.241 C 
ATOM     39  N   ASN A   4      16.925  76.741   6.324  0.00  0.00    -0.297 N 
ATOM     40  H   ASN A   4      16.675  75.760   6.564  0.00  0.00    +0.150 HD
ATOM     41  O   ARG A   3      17.680  78.147   4.738  0.00  0.00    -0.273 OA
BRANCH  38  42
ATOM     42  CA  ARG A   3      17.174  75.900   4.051  0.00  0.00    +0.149 C 
BRANCH  42  45
ATOM     43  C   ALA A   2      18.147  74.129   5.401  0.00  0.00    +0.241 C 
ATOM     44  O   ALA A   2      19.211  74.740   5.491  0.00  0.00    -0.273 OA
ATOM     45  N   ARG A   3      17.106  74.601   4.720  0.00  0.00    -0.297 N 
ATOM     46  H   ARG A   3      16.233  74.039   4.663  0.00  0.00    +0.150 HD
BRANCH  43  47
ATOM     47  CA  ALA A   2      17.970  72.780   6.092  0.00  0.00    +0.149 C 
ATOM     48  CB  ALA A   2      18.391  71.642   5.150  0.00  0.00    +0.031 C 
BRANCH  47  51
ATOM     49  C   ALA A   1      16.035  73.402   7.431  0.00  0.00    +0.238 C 
ATOM     50  O   ALA A   1      16.598  74.411   7.851  0.00  0.00    -0.274 OA
ATOM     51  N   ALA A   2      16.601  72.570   6.560  0.00  0.00    -0.297 N 
ATOM     52  H   ALA A   2      16.060  71.756   6.206  0.00  0.00    +0.150 HD
BRANCH  49  53
ATOM     53  CA  ALA A   1      14.633  73.051   7.921  0.00  0.00    +0.145 C 
ATOM     54  CB  ALA A   1      13.580  73.559   6.935  0.00  0.00    +0.028 C 
BRANCH  53  55
ATOM     55  N   ALA A   1      14.468  73.707   9.212  0.00  0.00    -0.238 NA
ATOM     56  H   ALA A   1      15.228  74.327   9.560  0.00  0.00    +0.142 HD
ENDBRANCH  53  55
ENDBRANCH  49  53
ENDBRANCH  47  51
ENDBRANCH  43  47
ENDBRANCH  42  45
BRANCH  42  57
ATOM     57  CB  ARG A   3      15.921  76.125   3.195  0.00  0.00    +0.033 C 
BRANCH  57  58
ATOM     58  CG  ARG A   3      14.649  76.191   4.022  0.00  0.00    +0.045 C 
BRANCH  58  59
ATOM     59  CD  ARG A   3      13.408  76.521   3.203  0.00  0.00    +0.174 C 
BRANCH  59  60
ATOM     60  NE  ARG A   3      12.222  76.414   4.046  0.00  0.00    -0.265 N 
ATOM     61  HE  ARG A   3      11.874  77.278   4.508  0.00  0.00    +0.259 HD
ATOM     62  CZ  ARG A   3      11.558  75.284   4.261  0.00  0.00    +0.342 C 
ATOM     63  NH2 ARG A   3      10.528  75.271   5.095  0.00  0.00    -0.292 N 
ATOM     64 HH21 ARG A   3      10.241  76.145   5.580  0.00  0.00    +0.255 HD
ATOM     65 HH22 ARG A   3      10.007  74.387   5.264  0.00  0.00    +0.255 HD
ATOM     66  NH1 ARG A   3      11.950  74.155   3.681  0.00  0.00    -0.292 N 
ATOM     67 HH11 ARG A   3      11.426  73.273   3.853  0.00  0.00    +0.255 HD
ATOM     68 HH12 ARG A   3      12.781  74.153   3.055  0.00  0.00    +0.255 HD
ENDBRANCH  59  60
ENDBRANCH  58  59
ENDBRANCH  57  58
ENDBRANCH  42  57
ENDBRANCH  38  42
ENDBRANCH   1  39
BRANCH   1  69
ATOM     69  CB  ASN A   4      15.513  77.716   8.075  0.00  0.00    +0.114 C 
BRANCH  69  70
ATOM     70  CG  ASN A   4      14.393  78.247   7.210  0.00  0.00    +0.222 C 
ATOM     71  ND2 ASN A   4      13.178  77.758   7.439  0.00  0.00    -0.329 N 
ATOM     72 HD21 ASN A   4      13.035  77.049   8.186  0.00  0.00    +0.145 HD
ATOM     73 HD22 ASN A   4      12.370  78.084   6.871  0.00  0.00    +0.145 HD
ATOM     74  OD1 ASN A   4      14.619  79.086   6.340  0.00  0.00    -0.275 OA
ENDBRANCH  69  70
ENDBRANCH   1  69
TORSDOF 30
REMARK  Name = ../refined-set-2016/3zxz/3zxz_pocket.pdb
REMARK  242 active torsions:
REMARK  status: ('A' for Active; 'I' for Inactive)
REMARK    1  A    between atoms: _1  and  _3
REMARK    2  A    between atoms: _3  and  _4
REMARK    3  A    between atoms: _3  and  _6
REMARK    4  A    between atoms: _9  and  _11
REMARK    5  A    between atoms: _11  and  _12
REMARK    6  A    between atoms: _11  and  _14
REMARK    7  A    between atoms: _14  and  _15
REMARK    8  A    between atoms: _18  and  _20
REMARK    9  A    between atoms: _20  and  _21
REMARK   10  A    between atoms: _23  and  _25
REMARK   11  A    between atoms: _25  and  _26
REMARK   12  A    between atoms: _25  and  _28
REMARK   13  A    between atoms: _28  and  _29
REMARK   14  A    between atoms: _29  and  _30
REMARK   15  A    between atoms: _30  and  _31
REMARK   16  A    between atoms: _40  and  _42
REMARK   17  A    between atoms: _42  and  _43
REMARK   18  A    between atoms: _45  and  _47
REMARK   19  A    between atoms: _47  and  _48
REMARK   20  A    between atoms: _47  and  _50
REMARK   21  A    between atoms: _52  and  _54
REMARK   22  A    between atoms: _54  and  _55
REMARK   23  A    between atoms: _54  and  _57
REMARK   24  A    between atoms: _60  and  _62
REMARK   25  A    between atoms: _62  and  _63
REMARK   26  A    between atoms: _62  and  _65
REMARK   27  A    between atoms: _65  and  _66
REMARK   28  A    between atoms: _71  and  _72
REMARK   29  A    between atoms: _74  and  _76
REMARK   30  A    between atoms: _76  and  _77
REMARK   31  A    between atoms: _76  and  _79
REMARK   32  A    between atoms: _79  and  _80
REMARK   33  A    between atoms: _85  and  _87
REMARK   34  A    between atoms: _87  and  _88
REMARK   35  A    between atoms: _90  and  _92
REMARK   36  A    between atoms: _92  and  _93
REMARK   37  A    between atoms: _92  and  _95
REMARK   38  A    between atoms: _95  and  _96
REMARK   39  A    between atoms: _101  and  _103
REMARK   40  A    between atoms: _103  and  _104
REMARK   41  A    between atoms: _103  and  _106
REMARK   42  A    between atoms: _108  and  _110
REMARK   43  A    between atoms: _110  and  _111
REMARK   44  A    between atoms: _114  and  _116
REMARK   45  A    between atoms: _116  and  _117
REMARK   46  A    between atoms: _116  and  _119
REMARK   47  A    between atoms: _122  and  _124
REMARK   48  A    between atoms: _124  and  _125
REMARK   49  A    between atoms: _124  and  _127
REMARK   50  A    between atoms: _127  and  _128
REMARK   51  A    between atoms: _128  and  _129
REMARK   52  A    between atoms: _129  and  _130
REMARK   53  A    between atoms: _130  and  _131
REMARK   54  A    between atoms: _135  and  _137
REMARK   55  A    between atoms: _137  and  _138
REMARK   56  A    between atoms: _137  and  _140
REMARK   57  A    between atoms: _140  and  _141
REMARK   58  A    between atoms: _143  and  _145
REMARK   59  A    between atoms: _145  and  _146
REMARK   60  A    between atoms: _145  and  _148
REMARK   61  A    between atoms: _148  and  _149
REMARK   62  A    between atoms: _149  and  _150
REMARK   63  A    between atoms: _152  and  _154
REMARK   64  A    between atoms: _154  and  _155
REMARK   65  A    between atoms: _154  and  _157
REMARK   66  A    between atoms: _157  and  _158
REMARK   67  A    between atoms: _161  and  _163
REMARK   68  A    between atoms: _163  and  _164
REMARK   69  A    between atoms: _163  and  _166
REMARK   70  A    between atoms: _166  and  _167
REMARK   71  A    between atoms: _169  and  _171
REMARK   72  A    between atoms: _171  and  _172
REMARK   73  A    between atoms: _171  and  _174
REMARK   74  A    between atoms: _177  and  _179
REMARK   75  A    between atoms: _179  and  _180
REMARK   76  A    between atoms: _179  and  _182
REMARK   77  A    between atoms: _185  and  _187
REMARK   78  A    between atoms: _187  and  _188
REMARK   79  A    between atoms: _187  and  _190
REMARK   80  A    between atoms: _190  and  _191
REMARK   81  A    between atoms: _195  and  _196
REMARK   82  A    between atoms: _201  and  _203
REMARK   83  A    between atoms: _203  and  _204
REMARK   84  A    between atoms: _203  and  _206
REMARK   85  A    between atoms: _206  and  _207
REMARK   86  A    between atoms: _212  and  _213
REMARK   87  A    between atoms: _215  and  _217
REMARK   88  A    between atoms: _217  and  _218
REMARK   89  A    between atoms: _217  and  _220
REMARK   90  A    between atoms: _220  and  _221
REMARK   91  A    between atoms: _221  and  _222
REMARK   92  A    between atoms: _224  and  _226
REMARK   93  A    between atoms: _226  and  _227
REMARK   94  A    between atoms: _226  and  _229
REMARK   95  A    between atoms: _229  and  _230
REMARK   96  A    between atoms: _230  and  _231
REMARK   97  A    between atoms: _231  and  _232
REMARK   98  A    between atoms: _232  and  _233
REMARK   99  A    between atoms: _237  and  _239
REMARK  100  A    between atoms: _239  and  _240
REMARK  101  A    between atoms: _239  and  _242
REMARK  102  A    between atoms: _242  and  _243
REMARK  103  A    between atoms: _248  and  _250
REMARK  104  A    between atoms: _250  and  _251
REMARK  105  A    between atoms: _253  and  _255
REMARK  106  A    between atoms: _255  and  _256
REMARK  107  A    between atoms: _255  and  _258
REMARK  108  A    between atoms: _258  and  _259
REMARK  109  A    between atoms: _262  and  _264
REMARK  110  A    between atoms: _264  and  _265
REMARK  111  A    between atoms: _264  and  _267
REMARK  112  A    between atoms: _267  and  _268
REMARK  113  A    between atoms: _271  and  _273
REMARK  114  A    between atoms: _273  and  _274
REMARK  115  A    between atoms: _273  and  _276
REMARK  116  A    between atoms: _276  and  _277
REMARK  117  A    between atoms: _277  and  _278
REMARK  118  A    between atoms: _278  and  _279
REMARK  119  A    between atoms: _288  and  _290
REMARK  120  A    between atoms: _290  and  _291
REMARK  121  A    between atoms: _290  and  _293
REMARK  122  A    between atoms: _293  and  _294
REMARK  123  A    between atoms: _299  and  _301
REMARK  124  A    between atoms: _301  and  _302
REMARK  125  A    between atoms: _301  and  _304
REMARK  126  A    between atoms: _304  and  _305
REMARK  127  A    between atoms: _311  and  _313
REMARK  128  A    between atoms: _313  and  _314
REMARK  129  A    between atoms: _313  and  _316
REMARK  130  A    between atoms: _316  and  _317
REMARK  131  A    between atoms: _317  and  _318
REMARK  132  A    between atoms: _318  and  _319
REMARK  133  A    between atoms: _328  and  _330
REMARK  134  A    between atoms: _330  and  _331
REMARK  135  A    between atoms: _330  and  _333
REMARK  136  A    between atoms: _333  and  _334
REMARK  137  A    between atoms: _339  and  _341
REMARK  138  A    between atoms: _341  and  _342
REMARK  139  A    between atoms: _341  and  _344
REMARK  140  A    between atoms: _344  and  _345
REMARK  141  A    between atoms: _348  and  _350
REMARK  142  A    between atoms: _350  and  _351
REMARK  143  A    between atoms: _354  and  _356
REMARK  144  A    between atoms: _356  and  _357
REMARK  145  A    between atoms: _360  and  _362
REMARK  146  A    between atoms: _362  and  _363
REMARK  147  A    between atoms: _362  and  _365
REMARK  148  A    between atoms: _365  and  _366
REMARK  149  A    between atoms: _366  and  _367
REMARK  150  A    between atoms: _367  and  _368
REMARK  151  A    between atoms: _377  and  _379
REMARK  152  A    between atoms: _379  and  _380
REMARK  153  A    between atoms: _379  and  _382
REMARK  154  A    between atoms: _382  and  _383
REMARK  155  A    between atoms: _388  and  _390
REMARK  156  A    between atoms: _390  and  _391
REMARK  157  A    between atoms: _390  and  _393
REMARK  158  A    between atoms: _395  and  _397
REMARK  159  A    between atoms: _397  and  _398
REMARK  160  A    between atoms: _397  and  _400
REMARK  161  A    between atoms: _400  and  _401
REMARK  162  A    between atoms: _401  and  _402
REMARK  163  A    between atoms: _404  and  _406
REMARK  164  A    between atoms: _406  and  _407
REMARK  165  A    between atoms: _406  and  _409
REMARK  166  A    between atoms: _409  and  _410
REMARK  167  A    between atoms: _413  and  _415
REMARK  168  A    between atoms: _415  and  _416
REMARK  169  A    between atoms: _415  and  _418
REMARK  170  A    between atoms: _418  and  _419
REMARK  171  A    between atoms: _422  and  _424
REMARK  172  A    between atoms: _424  and  _425
REMARK  173  A    between atoms: _424  and  _427
REMARK  174  A    between atoms: _427  and  _428
REMARK  175  A    between atoms: _428  and  _429
REMARK  176  A    between atoms: _429  and  _430
REMARK  177  A    between atoms: _430  and  _431
REMARK  178  A    between atoms: _435  and  _437
REMARK  179  A    between atoms: _437  and  _438
REMARK  180  A    between atoms: _437  and  _440
REMARK  181  A    between atoms: _443  and  _445
REMARK  182  A    between atoms: _445  and  _446
REMARK  183  A    between atoms: _449  and  _451
REMARK  184  A    between atoms: _451  and  _452
REMARK  185  A    between atoms: _451  and  _454
REMARK  186  A    between atoms: _454  and  _455
REMARK  187  A    between atoms: _458  and  _460
REMARK  188  A    between atoms: _460  and  _461
REMARK  189  A    between atoms: _460  and  _463
REMARK  190  A    between atoms: _463  and  _464
REMARK  191  A    between atoms: _470  and  _472
REMARK  192  A    between atoms: _472  and  _473
REMARK  193  A    between atoms: _472  and  _475
REMARK  194  A    between atoms: _475  and  _476
REMARK  195  A    between atoms: _479  and  _481
REMARK  196  A    between atoms: _481  and  _482
REMARK  197  A    between atoms: _485  and  _487
REMARK  198  A    between atoms: _487  and  _488
REMARK  199  A    between atoms: _487  and  _490
REMARK  200  A    between atoms: _490  and  _491
REMARK  201  A    between atoms: _491  and  _492
REMARK  202  A    between atoms: _492  and  _493
REMARK  203  A    between atoms: _502  and  _504
REMARK  204  A    between atoms: _504  and  _505
REMARK  205  A    between atoms: _504  and  _507
REMARK  206  A    between atoms: _507  and  _508
REMARK  207  A    between atoms: _511  and  _513
REMARK  208  A    between atoms: _513  and  _514
REMARK  209  A    between atoms: _513  and  _516
REMARK  210  A    between atoms: _516  and  _517
REMARK  211  A    between atoms: _517  and  _518
REMARK  212  A    between atoms: _520  and  _522
REMARK  213  A    between atoms: _522  and  _523
REMARK  214  A    between atoms: _522  and  _525
REMARK  215  A    between atoms: _525  and  _526
REMARK  216  A    between atoms: _531  and  _532
REMARK  217  A    between atoms: _534  and  _536
REMARK  218  A    between atoms: _536  and  _537
REMARK  219  A    between atoms: _536  and  _539
REMARK  220  A    between atoms: _539  and  _540
REMARK  221  A    between atoms: _543  and  _545
REMARK  222  A    between atoms: _545  and  _546
REMARK  223  A    between atoms: _545  and  _548
REMARK  224  A    between atoms: _548  and  _549
REMARK  225  A    between atoms: _549  and  _550
REMARK  226  A    between atoms: _550  and  _551
REMARK  227  A    between atoms: _551  and  _552
REMARK  228  A    between atoms: _556  and  _558
REMARK  229  A    between atoms: _558  and  _559
REMARK  230  A    between atoms: _558  and  _561
REMARK  231  A    between atoms: _561  and  _562
REMARK  232  A    between atoms: _562  and  _563
REMARK  233  A    between atoms: _566  and  _568
REMARK  234  A    between atoms: _568  and  _569
REMARK  235  A    between atoms: _568  and  _571
REMARK  236  A    between atoms: _571  and  _572
REMARK  237  A    between atoms: _577  and  _578
REMARK  238  A    between atoms: _580  and  _582
REMARK  239  A    between atoms: _582  and  _583
REMARK  240  A    between atoms: _582  and  _585
REMARK  241  A    between atoms: _585  and  _586
REMARK  242  A    between atoms: _591  and  _592
REMARK                            x       y       z     vdW  Elec       q    Type
REMARK                         _______ _______ _______ _____ _____    ______ ____
ROOT
ATOM      1  CA  ALA A   3      18.529  80.641  11.674  0.00  0.00    +0.149 C 
ATOM      2  CB  ALA A   3      19.383  81.066  10.478  0.00  0.00    +0.031 C 
ENDROOT
BRANCH   1   3
ATOM      3  C   ALA A   3      17.043  80.765  11.338  0.00  0.00    +0.241 C 
ATOM      4  O   ALA A   3      16.248  79.924  11.730  0.00  0.00    -0.273 OA
ATOM      5  N   ASP A   4      16.676  81.825  10.623  0.00  0.00    -0.297 N 
ATOM      6  H   ASP A   4      17.406  82.492  10.301  0.00  0.00    +0.150 HD
BRANCH   5   7
ATOM      7  CA  ASP A   4      15.278  82.082  10.275  0.00  0.00    +0.160 C 
BRANCH   7   8
ATOM      8  C   ASP A   4      14.352  82.012  11.495  0.00  0.00    +0.241 C 
ATOM      9  N   PHE A   5      14.730  82.715  12.558  0.00  0.00    -0.298 N 
ATOM     10  H   PHE A   5      15.680  83.137  12.575  0.00  0.00    +0.150 HD
ATOM     11  O   ASP A   4      13.323  81.330  11.474  0.00  0.00    -0.273 OA
BRANCH   9  12
ATOM     12  CA  PHE A   5      13.844  82.909  13.702  0.00  0.00    +0.141 C 
BRANCH  12  13
ATOM     13  C   PHE A   5      14.005  84.334  14.226  0.00  0.00    +0.227 C 
ATOM     14  O   PHE A   5      14.970  85.026  13.887  0.00  0.00    -0.286 OA
ENDBRANCH  12  13
BRANCH  12  15
ATOM     15  CB  PHE A   5      14.178  81.916  14.815  0.00  0.00    +0.054 C 
BRANCH  15  16
ATOM     16  CG  PHE A   5      15.466  82.216  15.520  0.00  0.00    -0.020 A 
ATOM     17  CD2 PHE A   5      15.485  83.038  16.637  0.00  0.00    -0.004 A 
ATOM     18  CE2 PHE A   5      16.678  83.341  17.269  0.00  0.00    -0.000 A 
ATOM     19  CZ  PHE A   5      17.865  82.822  16.787  0.00  0.00    -0.000 A 
ATOM     20  CE1 PHE A   5      17.856  82.002  15.679  0.00  0.00    -0.000 A 
ATOM     21  CD1 PHE A   5      16.663  81.702  15.051  0.00  0.00    -0.004 A 
ENDBRANCH  15  16
ENDBRANCH  12  15
ENDBRANCH   9  12
ENDBRANCH   7   8
BRANCH   7  22
ATOM     22  CB  ASP A   4      14.800  81.091   9.205  0.00  0.00    +0.143 C 
BRANCH  22  23
ATOM     23  CG  ASP A   4      13.502  81.532   8.534  0.00  0.00    +0.367 C 
ATOM     24  OD2 ASP A   4      13.058  82.671   8.779  0.00  0.00    -0.246 OA
ATOM     25  OD1 ASP A   4      12.923  80.744   7.760  0.00  0.00    -0.246 OA
ENDBRANCH  22  23
ENDBRANCH   7  22
ENDBRANCH   5   7
ENDBRANCH   1   3
BRANCH   1  28
ATOM     26  C   VAL A   2      19.664  79.056  13.127  0.00  0.00    +0.241 C 
ATOM     27  O   VAL A   2      20.036  79.952  13.880  0.00  0.00    -0.273 OA
ATOM     28  N   ALA A   3      18.880  79.280  12.077  0.00  0.00    -0.297 N 
ATOM     29  H   ALA A   3      18.510  78.474  11.533  0.00  0.00    +0.150 HD
BRANCH  26  30
ATOM     30  CA  VAL A   2      20.114  77.617  13.361  0.00  0.00    +0.148 C 
BRANCH  30  32
ATOM     31  C   LYS A   1      22.317  78.095  12.510  0.00  0.00    +0.238 C 
ATOM     32  N   VAL A   2      21.560  77.666  13.513  0.00  0.00    -0.297 N 
ATOM     33  H   VAL A   2      22.000  77.365  14.406  0.00  0.00    +0.150 HD
ATOM     34  O   LYS A   1      21.882  78.254  11.366  0.00  0.00    -0.274 OA
BRANCH  31  35
ATOM     35  CA  LYS A   1      23.774  78.396  12.827  0.00  0.00    +0.145 C 
BRANCH  35  36
ATOM     36  N   LYS A   1      24.625  77.556  11.996  0.00  0.00    -0.238 NA
ATOM     37  H   LYS A   1      24.641  77.715  10.968  0.00  0.00    +0.142 HD
ENDBRANCH  35  36
BRANCH  35  38
ATOM     38  CB  LYS A   1      24.042  79.878  12.545  0.00  0.00    +0.026 C 
BRANCH  38  39
ATOM     39  CG  LYS A   1      25.509  80.267  12.543  0.00  0.00    -0.000 C 
BRANCH  39  40
ATOM     40  CD  LYS A   1      26.112  80.225  13.932  0.00  0.00    -0.024 C 
BRANCH  40  41
ATOM     41  CE  LYS A   1      27.515  80.819  13.924  0.00  0.00    -0.086 C 
BRANCH  41  42
ATOM     42  NZ  LYS A   1      28.131  80.840  15.283  0.00  0.00    +0.380 N 
ATOM     43  HZ1 LYS A   1      27.542  81.413  15.920  0.00  0.00    -0.089 HD
ATOM     44  HZ2 LYS A   1      28.195  79.868  15.648  0.00  0.00    -0.089 HD
ATOM     45  HZ3 LYS A   1      29.084  81.253  15.224  0.00  0.00    -0.089 HD
ENDBRANCH  41  42
ENDBRANCH  40  41
ENDBRANCH  39  40
ENDBRANCH  38  39
ENDBRANCH  35  38
ENDBRANCH  31  35
ENDBRANCH  30  32
BRANCH  30  46
ATOM     46  CB  VAL A   2      19.428  77.067  14.628  0.00  0.00    +0.027 C 
ATOM     47  CG2 VAL A   2      19.808  75.597  14.838  0.00  0.00    +0.002 C 
ATOM     48  CG1 VAL A   2      17.917  77.204  14.496  0.00  0.00    +0.002 C 
ENDBRANCH  30  46
ENDBRANCH  26  30
ENDBRANCH   1  28
TORSDOF 20
REMARK  Name = ../refined-set-2016/3zxz/3zxz_pocket.pdb
REMARK  242 active torsions:
REMARK  status: ('A' for Active; 'I' for Inactive)
REMARK    1  A    between atoms: _1  and  _3
REMARK    2  A    between atoms: _3  and  _4
REMARK    3  A    between atoms: _3  and  _6
REMARK    4  A    between atoms: _9  and  _11
REMARK    5  A    between atoms: _11  and  _12
REMARK    6  A    between atoms: _11  and  _14
REMARK    7  A    between atoms: _14  and  _15
REMARK    8  A    between atoms: _18  and  _20
REMARK    9  A    between atoms: _20  and  _21
REMARK   10  A    between atoms: _23  and  _25
REMARK   11  A    between atoms: _25  and  _26
REMARK   12  A    between atoms: _25  and  _28
REMARK   13  A    between atoms: _28  and  _29
REMARK   14  A    between atoms: _29  and  _30
REMARK   15  A    between atoms: _30  and  _31
REMARK   16  A    between atoms: _40  and  _42
REMARK   17  A    between atoms: _42  and  _43
REMARK   18  A    between atoms: _45  and  _47
REMARK   19  A    between atoms: _47  and  _48
REMARK   20  A    between atoms: _47  and  _50
REMARK   21  A    between atoms: _52  and  _54
REMARK   22  A    between atoms: _54  and  _55
REMARK   23  A    between atoms: _54  and  _57
REMARK   24  A    between atoms: _60  and  _62
REMARK   25  A    between atoms: _62  and  _63
REMARK   26  A    between atoms: _62  and  _65
REMARK   27  A    between atoms: _65  and  _66
REMARK   28  A    between atoms: _71  and  _72
REMARK   29  A    between atoms: _74  and  _76
REMARK   30  A    between atoms: _76  and  _77
REMARK   31  A    between atoms: _76  and  _79
REMARK   32  A    between atoms: _79  and  _80
REMARK   33  A    between atoms: _85  and  _87
REMARK   34  A    between atoms: _87  and  _88
REMARK   35  A    between atoms: _90  and  _92
REMARK   36  A    between atoms: _92  and  _93
REMARK   37  A    between atoms: _92  and  _95
REMARK   38  A    between atoms: _95  and  _96
REMARK   39  A    between atoms: _101  and  _103
REMARK   40  A    between atoms: _103  and  _104
REMARK   41  A    between atoms: _103  and  _106
REMARK   42  A    between atoms: _108  and  _110
REMARK   43  A    between atoms: _110  and  _111
REMARK   44  A    between atoms: _114  and  _116
REMARK   45  A    between atoms: _116  and  _117
REMARK   46  A    between atoms: _116  and  _119
REMARK   47  A    between atoms: _122  and  _124
REMARK   48  A    between atoms: _124  and  _125
REMARK   49  A    between atoms: _124  and  _127
REMARK   50  A    between atoms: _127  and  _128
REMARK   51  A    between atoms: _128  and  _129
REMARK   52  A    between atoms: _129  and  _130
REMARK   53  A    between atoms: _130  and  _131
REMARK   54  A    between atoms: _135  and  _137
REMARK   55  A    between atoms: _137  and  _138
REMARK   56  A    between atoms: _137  and  _140
REMARK   57  A    between atoms: _140  and  _141
REMARK   58  A    between atoms: _143  and  _145
REMARK   59  A    between atoms: _145  and  _146
REMARK   60  A    between atoms: _145  and  _148
REMARK   61  A    between atoms: _148  and  _149
REMARK   62  A    between atoms: _149  and  _150
REMARK   63  A    between atoms: _152  and  _154
REMARK   64  A    between atoms: _154  and  _155
REMARK   65  A    between atoms: _154  and  _157
REMARK   66  A    between atoms: _157  and  _158
REMARK   67  A    between atoms: _161  and  _163
REMARK   68  A    between atoms: _163  and  _164
REMARK   69  A    between atoms: _163  and  _166
REMARK   70  A    between atoms: _166  and  _167
REMARK   71  A    between atoms: _169  and  _171
REMARK   72  A    between atoms: _171  and  _172
REMARK   73  A    between atoms: _171  and  _174
REMARK   74  A    between atoms: _177  and  _179
REMARK   75  A    between atoms: _179  and  _180
REMARK   76  A    between atoms: _179  and  _182
REMARK   77  A    between atoms: _185  and  _187
REMARK   78  A    between atoms: _187  and  _188
REMARK   79  A    between atoms: _187  and  _190
REMARK   80  A    between atoms: _190  and  _191
REMARK   81  A    between atoms: _195  and  _196
REMARK   82  A    between atoms: _201  and  _203
REMARK   83  A    between atoms: _203  and  _204
REMARK   84  A    between atoms: _203  and  _206
REMARK   85  A    between atoms: _206  and  _207
REMARK   86  A    between atoms: _212  and  _213
REMARK   87  A    between atoms: _215  and  _217
REMARK   88  A    between atoms: _217  and  _218
REMARK   89  A    between atoms: _217  and  _220
REMARK   90  A    between atoms: _220  and  _221
REMARK   91  A    between atoms: _221  and  _222
REMARK   92  A    between atoms: _224  and  _226
REMARK   93  A    between atoms: _226  and  _227
REMARK   94  A    between atoms: _226  and  _229
REMARK   95  A    between atoms: _229  and  _230
REMARK   96  A    between atoms: _230  and  _231
REMARK   97  A    between atoms: _231  and  _232
REMARK   98  A    between atoms: _232  and  _233
REMARK   99  A    between atoms: _237  and  _239
REMARK  100  A    between atoms: _239  and  _240
REMARK  101  A    between atoms: _239  and  _242
REMARK  102  A    between atoms: _242  and  _243
REMARK  103  A    between atoms: _248  and  _250
REMARK  104  A    between atoms: _250  and  _251
REMARK  105  A    between atoms: _253  and  _255
REMARK  106  A    between atoms: _255  and  _256
REMARK  107  A    between atoms: _255  and  _258
REMARK  108  A    between atoms: _258  and  _259
REMARK  109  A    between atoms: _262  and  _264
REMARK  110  A    between atoms: _264  and  _265
REMARK  111  A    between atoms: _264  and  _267
REMARK  112  A    between atoms: _267  and  _268
REMARK  113  A    between atoms: _271  and  _273
REMARK  114  A    between atoms: _273  and  _274
REMARK  115  A    between atoms: _273  and  _276
REMARK  116  A    between atoms: _276  and  _277
REMARK  117  A    between atoms: _277  and  _278
REMARK  118  A    between atoms: _278  and  _279
REMARK  119  A    between atoms: _288  and  _290
REMARK  120  A    between atoms: _290  and  _291
REMARK  121  A    between atoms: _290  and  _293
REMARK  122  A    between atoms: _293  and  _294
REMARK  123  A    between atoms: _299  and  _301
REMARK  124  A    between atoms: _301  and  _302
REMARK  125  A    between atoms: _301  and  _304
REMARK  126  A    between atoms: _304  and  _305
REMARK  127  A    between atoms: _311  and  _313
REMARK  128  A    between atoms: _313  and  _314
REMARK  129  A    between atoms: _313  and  _316
REMARK  130  A    between atoms: _316  and  _317
REMARK  131  A    between atoms: _317  and  _318
REMARK  132  A    between atoms: _318  and  _319
REMARK  133  A    between atoms: _328  and  _330
REMARK  134  A    between atoms: _330  and  _331
REMARK  135  A    between atoms: _330  and  _333
REMARK  136  A    between atoms: _333  and  _334
REMARK  137  A    between atoms: _339  and  _341
REMARK  138  A    between atoms: _341  and  _342
REMARK  139  A    between atoms: _341  and  _344
REMARK  140  A    between atoms: _344  and  _345
REMARK  141  A    between atoms: _348  and  _350
REMARK  142  A    between atoms: _350  and  _351
REMARK  143  A    between atoms: _354  and  _356
REMARK  144  A    between atoms: _356  and  _357
REMARK  145  A    between atoms: _360  and  _362
REMARK  146  A    between atoms: _362  and  _363
REMARK  147  A    between atoms: _362  and  _365
REMARK  148  A    between atoms: _365  and  _366
REMARK  149  A    between atoms: _366  and  _367
REMARK  150  A    between atoms: _367  and  _368
REMARK  151  A    between atoms: _377  and  _379
REMARK  152  A    between atoms: _379  and  _380
REMARK  153  A    between atoms: _379  and  _382
REMARK  154  A    between atoms: _382  and  _383
REMARK  155  A    between atoms: _388  and  _390
REMARK  156  A    between atoms: _390  and  _391
REMARK  157  A    between atoms: _390  and  _393
REMARK  158  A    between atoms: _395  and  _397
REMARK  159  A    between atoms: _397  and  _398
REMARK  160  A    between atoms: _397  and  _400
REMARK  161  A    between atoms: _400  and  _401
REMARK  162  A    between atoms: _401  and  _402
REMARK  163  A    between atoms: _404  and  _406
REMARK  164  A    between atoms: _406  and  _407
REMARK  165  A    between atoms: _406  and  _409
REMARK  166  A    between atoms: _409  and  _410
REMARK  167  A    between atoms: _413  and  _415
REMARK  168  A    between atoms: _415  and  _416
REMARK  169  A    between atoms: _415  and  _418
REMARK  170  A    between atoms: _418  and  _419
REMARK  171  A    between atoms: _422  and  _424
REMARK  172  A    between atoms: _424  and  _425
REMARK  173  A    between atoms: _424  and  _427
REMARK  174  A    between atoms: _427  and  _428
REMARK  175  A    between atoms: _428  and  _429
REMARK  176  A    between atoms: _429  and  _430
REMARK  177  A    between atoms: _430  and  _431
REMARK  178  A    between atoms: _435  and  _437
REMARK  179  A    between atoms: _437  and  _438
REMARK  180  A    between atoms: _437  and  _440
REMARK  181  A    between atoms: _443  and  _445
REMARK  182  A    between atoms: _445  and  _446
REMARK  183  A    between atoms: _449  and  _451
REMARK  184  A    between atoms: _451  and  _452
REMARK  185  A    between atoms: _451  and  _454
REMARK  186  A    between atoms: _454  and  _455
REMARK  187  A    between atoms: _458  and  _460
REMARK  188  A    between atoms: _460  and  _461
REMARK  189  A    between atoms: _460  and  _463
REMARK  190  A    between atoms: _463  and  _464
REMARK  191  A    between atoms: _470  and  _472
REMARK  192  A    between atoms: _472  and  _473
REMARK  193  A    between atoms: _472  and  _475
REMARK  194  A    between atoms: _475  and  _476
REMARK  195  A    between atoms: _479  and  _481
REMARK  196  A    between atoms: _481  and  _482
REMARK  197  A    between atoms: _485  and  _487
REMARK  198  A    between atoms: _487  and  _488
REMARK  199  A    between atoms: _487  and  _490
REMARK  200  A    between atoms: _490  and  _491
REMARK  201  A    between atoms: _491  and  _492
REMARK  202  A    between atoms: _492  and  _493
REMARK  203  A    between atoms: _502  and  _504
REMARK  204  A    between atoms: _504  and  _505
REMARK  205  A    between atoms: _504  and  _507
REMARK  206  A    between atoms: _507  and  _508
REMARK  207  A    between atoms: _511  and  _513
REMARK  208  A    between atoms: _513  and  _514
REMARK  209  A    between atoms: _513  and  _516
REMARK  210  A    between atoms: _516  and  _517
REMARK  211  A    between atoms: _517  and  _518
REMARK  212  A    between atoms: _520  and  _522
REMARK  213  A    between atoms: _522  and  _523
REMARK  214  A    between atoms: _522  and  _525
REMARK  215  A    between atoms: _525  and  _526
REMARK  216  A    between atoms: _531  and  _532
REMARK  217  A    between atoms: _534  and  _536
REMARK  218  A    between atoms: _536  and  _537
REMARK  219  A    between atoms: _536  and  _539
REMARK  220  A    between atoms: _539  and  _540
REMARK  221  A    between atoms: _543  and  _545
REMARK  222  A    between atoms: _545  and  _546
REMARK  223  A    between atoms: _545  and  _548
REMARK  224  A    between atoms: _548  and  _549
REMARK  225  A    between atoms: _549  and  _550
REMARK  226  A    between atoms: _550  and  _551
REMARK  227  A    between atoms: _551  and  _552
REMARK  228  A    between atoms: _556  and  _558
REMARK  229  A    between atoms: _558  and  _559
REMARK  230  A    between atoms: _558  and  _561
REMARK  231  A    between atoms: _561  and  _562
REMARK  232  A    between atoms: _562  and  _563
REMARK  233  A    between atoms: _566  and  _568
REMARK  234  A    between atoms: _568  and  _569
REMARK  235  A    between atoms: _568  and  _571
REMARK  236  A    between atoms: _571  and  _572
REMARK  237  A    between atoms: _577  and  _578
REMARK  238  A    between atoms: _580  and  _582
REMARK  239  A    between atoms: _582  and  _583
REMARK  240  A    between atoms: _582  and  _585
REMARK  241  A    between atoms: _585  and  _586
REMARK  242  A    between atoms: _591  and  _592
REMARK                            x       y       z     vdW  Elec       q    Type
REMARK                         _______ _______ _______ _____ _____    ______ ____
ROOT
ATOM      1  CA  TYR A   6      13.314  82.653   1.908  0.00  0.00    +0.153 C 
ENDROOT
BRANCH   1   2
ATOM      2  C   TYR A   6      13.280  81.773   0.665  0.00  0.00    +0.241 C 
ATOM      3  N   ASP A   7      12.446  80.737   0.684  0.00  0.00    -0.297 N 
ATOM      4  H   ASP A   7      11.956  80.493   1.568  0.00  0.00    +0.150 HD
ATOM      5  O   TYR A   6      14.007  82.024  -0.292  0.00  0.00    -0.273 OA
BRANCH   3   6
ATOM      6  CA  ASP A   7      12.205  79.935  -0.512  0.00  0.00    +0.160 C 
BRANCH   6   7
ATOM      7  C   ASP A   7      10.724  79.602  -0.579  0.00  0.00    +0.241 C 
ATOM      8  O   ASP A   7      10.257  78.675   0.087  0.00  0.00    -0.273 OA
ATOM      9  N   LYS A   8       9.990  80.358  -1.391  0.00  0.00    -0.297 N 
ATOM     10  H   LYS A   8      10.468  81.011  -2.044  0.00  0.00    +0.150 HD
BRANCH   9  11
ATOM     11  CA  LYS A   8       8.532  80.295  -1.390  0.00  0.00    +0.149 C 
BRANCH  11  12
ATOM     12  C   LYS A   8       7.984  78.945  -1.853  0.00  0.00    +0.241 C 
ATOM     13  O   LYS A   8       6.826  78.613  -1.577  0.00  0.00    -0.273 OA
ATOM     14  N   GLU A   9       8.809  78.168  -2.549  0.00  0.00    -0.297 N 
ATOM     15  H   GLU A   9       9.794  78.469  -2.694  0.00  0.00    +0.150 HD
BRANCH  14  16
ATOM     16  CA  GLU A   9       8.357  76.901  -3.113  0.00  0.00    +0.149 C 
BRANCH  16  17
ATOM     17  C   GLU A   9       7.884  75.910  -2.054  0.00  0.00    +0.241 C 
ATOM     18  N   TYR A  10       8.398  76.036  -0.835  0.00  0.00    -0.297 N 
ATOM     19  H   TYR A  10       8.988  76.862  -0.608  0.00  0.00    +0.150 HD
ATOM     20  O   GLU A   9       7.064  75.041  -2.337  0.00  0.00    -0.273 OA
BRANCH  18  21
ATOM     21  CA  TYR A  10       8.143  75.029   0.188  0.00  0.00    +0.153 C 
BRANCH  21  22
ATOM     22  C   TYR A  10       7.189  75.500   1.277  0.00  0.00    +0.241 C 
ATOM     23  O   TYR A  10       7.148  74.942   2.372  0.00  0.00    -0.273 OA
ATOM     24  N   TYR A  11       6.411  76.528   0.957  0.00  0.00    -0.298 N 
ATOM     25  H   TYR A  11       6.570  77.019   0.054  0.00  0.00    +0.150 HD
BRANCH  24  26
ATOM     26  CA  TYR A  11       5.343  76.987   1.833  0.00  0.00    +0.141 C 
BRANCH  26  27
ATOM     27  C   TYR A  11       4.027  76.948   1.068  0.00  0.00    +0.227 C 
ATOM     28  O   TYR A  11       3.953  77.404  -0.075  0.00  0.00    -0.286 OA
ENDBRANCH  26  27
BRANCH  26  29
ATOM     29  CB  TYR A  11       5.636  78.411   2.314  0.00  0.00    +0.054 C 
BRANCH  29  30
ATOM     30  CG  TYR A  11       6.901  78.510   3.141  0.00  0.00    -0.020 A 
ATOM     31  CD2 TYR A  11       6.849  78.501   4.531  0.00  0.00    -0.001 A 
ATOM     32  CE2 TYR A  11       8.008  78.554   5.295  0.00  0.00    +0.036 A 
ATOM     33  CZ  TYR A  11       9.236  78.619   4.666  0.00  0.00    +0.134 A 
ATOM     34  CE1 TYR A  11       9.313  78.635   3.285  0.00  0.00    +0.036 A 
ATOM     35  CD1 TYR A  11       8.148  78.581   2.532  0.00  0.00    -0.001 A 
BRANCH  33  36
ATOM     36  OH  TYR A  11      10.389  78.649   5.422  0.00  0.00    -0.506 OA
ATOM     37  HH  TYR A  11      10.442  77.829   5.974  0.00  0.00    +0.292 HD
ENDBRANCH  33  36
ENDBRANCH  29  30
ENDBRANCH  26  29
ENDBRANCH  24  26
ENDBRANCH  21  22
BRANCH  21  38
ATOM     38  CB  TYR A  10       9.472  74.556   0.784  0.00  0.00    +0.055 C 
BRANCH  38  39
ATOM     39  CG  TYR A  10      10.323  73.864  -0.249  0.00  0.00    -0.020 A 
ATOM     40  CD2 TYR A  10      10.024  72.569  -0.657  0.00  0.00    -0.001 A 
ATOM     41  CE2 TYR A  10      10.742  71.949  -1.657  0.00  0.00    +0.036 A 
ATOM     42  CZ  TYR A  10      11.780  72.615  -2.267  0.00  0.00    +0.134 A 
ATOM     43  CE1 TYR A  10      12.110  73.902  -1.881  0.00  0.00    +0.036 A 
ATOM     44  CD1 TYR A  10      11.379  74.522  -0.871  0.00  0.00    -0.001 A 
BRANCH  42  45
ATOM     45  OH  TYR A  10      12.471  71.989  -3.279  0.00  0.00    -0.506 OA
ATOM     46  HH  TYR A  10      12.381  72.515  -4.113  0.00  0.00    +0.292 HD
ENDBRANCH  42  45
ENDBRANCH  38  39
ENDBRANCH  21  38
ENDBRANCH  18  21
ENDBRANCH  16  17
BRANCH  16  47
ATOM     47  CB  GLU A   9       9.464  76.240  -3.939  0.00  0.00    +0.041 C 
BRANCH  47  48
ATOM     48  CG  GLU A   9       9.017  74.908  -4.543  0.00  0.00    +0.116 C 
BRANCH  48  49
ATOM     49  CD  GLU A   9      10.110  74.188  -5.306  0.00  0.00    +0.365 C 
ATOM     50  OE2 GLU A   9      11.207  74.759  -5.475  0.00  0.00    -0.246 OA
ATOM     51  OE1 GLU A   9       9.864  73.042  -5.741  0.00  0.00    -0.246 OA
ENDBRANCH  48  49
ENDBRANCH  47  48
ENDBRANCH  16  47
ENDBRANCH  14  16
ENDBRANCH  11  12
BRANCH  11  52
ATOM     52  CB  LYS A   8       7.961  81.413  -2.269  0.00  0.00    +0.029 C 
BRANCH  52  53
ATOM     53  CG  LYS A   8       8.414  81.350  -3.719  0.00  0.00    +0.000 C 
BRANCH  53  54
ATOM     54  CD  LYS A   8       7.820  82.489  -4.535  0.00  0.00    -0.024 C 
BRANCH  54  55
ATOM     55  CE  LYS A   8       8.192  82.363  -6.007  0.00  0.00    -0.086 C 
BRANCH  55  56
ATOM     56  NZ  LYS A   8       7.576  81.157  -6.634  0.00  0.00    +0.380 N 
ATOM     57  HZ1 LYS A   8       7.906  80.304  -6.139  0.00  0.00    -0.089 HD
ATOM     58  HZ2 LYS A   8       6.540  81.222  -6.563  0.00  0.00    -0.089 HD
ATOM     59  HZ3 LYS A   8       7.854  81.108  -7.635  0.00  0.00    -0.089 HD
ENDBRANCH  55  56
ENDBRANCH  54  55
ENDBRANCH  53  54
ENDBRANCH  52  53
ENDBRANCH  11  52
ENDBRANCH   9  11
ENDBRANCH   6   7
BRANCH   6  60
ATOM     60  CB  ASP A   7      13.023  78.636  -0.475  0.00  0.00    +0.143 C 
BRANCH  60  61
ATOM     61  CG  ASP A   7      12.964  77.870  -1.792  0.00  0.00    +0.367 C 
ATOM     62  OD2 ASP A   7      13.793  76.955  -1.996  0.00  0.00    -0.246 OA
ATOM     63  OD1 ASP A   7      12.089  78.186  -2.626  0.00  0.00    -0.246 OA
ENDBRANCH  60  61
ENDBRANCH   6  60
ENDBRANCH   3   6
ENDBRANCH   1   2
BRANCH   1  65
ATOM     64  C   MET A   5      11.100  83.113   2.797  0.00  0.00    +0.241 C 
ATOM     65  N   TYR A   6      12.215  82.389   2.823  0.00  0.00    -0.297 N 
ATOM     66  H   TYR A   6      12.303  81.616   3.513  0.00  0.00    +0.150 HD
ATOM     67  O   MET A   5      10.883  83.989   1.957  0.00  0.00    -0.273 OA
BRANCH  64  68
ATOM     68  CA  MET A   5      10.082  82.819   3.888  0.00  0.00    +0.149 C 
BRANCH  68  71
ATOM     69  C   ASP A   4      10.741  83.845   5.988  0.00  0.00    +0.241 C 
ATOM     70  O   ASP A   4      11.177  82.781   6.434  0.00  0.00    -0.273 OA
ATOM     71  N   MET A   5      10.090  83.929   4.834  0.00  0.00    -0.297 N 
ATOM     72  H   MET A   5       9.576  84.802   4.600  0.00  0.00    +0.150 HD
BRANCH  69  73
ATOM     73  CA  ASP A   4      10.911  85.144   6.775  0.00  0.00    +0.160 C 
BRANCH  73  76
ATOM     74  C   ARG A   3      11.704  85.752   9.002  0.00  0.00    +0.241 C 
ATOM     75  O   ARG A   3      11.390  86.933   8.858  0.00  0.00    -0.273 OA
ATOM     76  N   ASP A   4      11.562  84.840   8.044  0.00  0.00    -0.297 N 
ATOM     77  H   ASP A   4      11.927  83.880   8.205  0.00  0.00    +0.150 HD
BRANCH  74  78
ATOM     78  CA  ARG A   3      12.282  85.251  10.320  0.00  0.00    +0.149 C 
BRANCH  78  80
ATOM     79  C   ALA A   2      14.519  86.202  10.222  0.00  0.00    +0.241 C 
ATOM     80  N   ARG A   3      13.339  86.124  10.832  0.00  0.00    -0.297 N 
ATOM     81  H   ARG A   3      13.165  86.692  11.686  0.00  0.00    +0.150 HD
ATOM     82  O   ALA A   2      14.761  85.617   9.165  0.00  0.00    -0.273 OA
BRANCH  79  83
ATOM     83  CA  ALA A   2      15.587  87.069  10.892  0.00  0.00    +0.149 C 
ATOM     84  CB  ALA A   2      16.870  86.258  11.094  0.00  0.00    +0.031 C 
BRANCH  83  86
ATOM     85  C   LEU A   1      14.533  88.791  12.250  0.00  0.00    +0.238 C 
ATOM     86  N   ALA A   2      15.124  87.602  12.170  0.00  0.00    -0.297 N 
ATOM     87  H   ALA A   2      15.259  87.041  13.035  0.00  0.00    +0.150 HD
ATOM     88  O   LEU A   1      14.374  89.523  11.273  0.00  0.00    -0.274 OA
BRANCH  85  89
ATOM     89  CA  LEU A   1      14.047  89.227  13.634  0.00  0.00    +0.145 C 
BRANCH  89  90
ATOM     90  N   LEU A   1      14.031  88.127  14.589  0.00  0.00    -0.238 NA
ATOM     91  H   LEU A   1      14.740  88.096  15.349  0.00  0.00    +0.142 HD
ENDBRANCH  89  90
BRANCH  89  92
ATOM     92  CB  LEU A   1      14.922  90.369  14.164  0.00  0.00    +0.026 C 
BRANCH  92  93
ATOM     93  CG  LEU A   1      14.431  90.996  15.475  0.00  0.00    +0.002 C 
ATOM     94  CD2 LEU A   1      15.438  92.039  15.956  0.00  0.00    +0.000 C 
ATOM     95  CD1 LEU A   1      13.067  91.634  15.260  0.00  0.00    +0.000 C 
ENDBRANCH  92  93
ENDBRANCH  89  92
ENDBRANCH  85  89
ENDBRANCH  83  86
ENDBRANCH  79  83
ENDBRANCH  78  80
BRANCH  78  96
ATOM     96  CB  ARG A   3      11.146  85.119  11.333  0.00  0.00    +0.033 C 
BRANCH  96  97
ATOM     97  CG  ARG A   3      10.012  84.220  10.839  0.00  0.00    +0.045 C 
BRANCH  97  98
ATOM     98  CD  ARG A   3       8.863  84.150  11.830  0.00  0.00    +0.174 C 
BRANCH  98  99
ATOM     99  NE  ARG A   3       8.143  85.415  11.919  0.00  0.00    -0.265 N 
ATOM    100  HE  ARG A   3       8.458  86.104  12.631  0.00  0.00    +0.259 HD
ATOM    101  CZ  ARG A   3       7.110  85.745  11.149  0.00  0.00    +0.342 C 
ATOM    102  NH2 ARG A   3       6.514  86.917  11.306  0.00  0.00    -0.292 N 
ATOM    103 HH21 ARG A   3       6.854  87.580  12.032  0.00  0.00    +0.255 HD
ATOM    104 HH22 ARG A   3       5.706  87.174  10.704  0.00  0.00    +0.255 HD
ATOM    105  NH1 ARG A   3       6.670  84.903  10.225  0.00  0.00    -0.292 N 
ATOM    106 HH11 ARG A   3       7.133  83.980  10.100  0.00  0.00    +0.255 HD
ATOM    107 HH12 ARG A   3       5.862  85.165   9.625  0.00  0.00    +0.255 HD
ENDBRANCH  98  99
ENDBRANCH  97  98
ENDBRANCH  96  97
ENDBRANCH  78  96
ENDBRANCH  74  78
ENDBRANCH  73  76
BRANCH  73 108
ATOM    108  CB  ASP A   4      11.758  86.136   5.971  0.00  0.00    +0.143 C 
BRANCH 108 109
ATOM    109  CG  ASP A   4      10.931  86.976   5.010  0.00  0.00    +0.367 C 
ATOM    110  OD2 ASP A   4      11.386  88.084   4.653  0.00  0.00    -0.246 OA
ATOM    111  OD1 ASP A   4       9.830  86.535   4.612  0.00  0.00    -0.246 OA
ENDBRANCH 108 109
ENDBRANCH  73 108
ENDBRANCH  69  73
ENDBRANCH  68  71
BRANCH  68 112
ATOM    112  CB  MET A   5       8.691  82.648   3.266  0.00  0.00    +0.041 C 
BRANCH 112 113
ATOM    113  CG  MET A   5       7.645  82.149   4.240  0.00  0.00    +0.060 C 
BRANCH 113 114
ATOM    114  SD  MET A   5       5.991  82.115   3.526  0.00  0.00    -0.139 S 
ATOM    115  CE  MET A   5       6.370  81.912   1.744  0.00  0.00    +0.069 C 
ENDBRANCH 113 114
ENDBRANCH 112 113
ENDBRANCH  68 112
ENDBRANCH  64  68
ENDBRANCH   1  65
BRANCH   1 116
ATOM    116  CB  TYR A   6      14.656  82.479   2.627  0.00  0.00    +0.055 C 
BRANCH 116 117
ATOM    117  CG  TYR A   6      14.914  83.515   3.700  0.00  0.00    -0.020 A 
ATOM    118  CD2 TYR A   6      14.704  83.219   5.041  0.00  0.00    -0.001 A 
ATOM    119  CE2 TYR A   6      14.973  84.154   6.034  0.00  0.00    +0.036 A 
ATOM    120  CZ  TYR A   6      15.453  85.397   5.689  0.00  0.00    +0.134 A 
ATOM    121  CE1 TYR A   6      15.665  85.720   4.361  0.00  0.00    +0.036 A 
ATOM    122  CD1 TYR A   6      15.395  84.781   3.375  0.00  0.00    -0.001 A 
BRANCH 120 123
ATOM    123  OH  TYR A   6      15.737  86.318   6.678  0.00  0.00    -0.506 OA
ATOM    124  HH  TYR A   6      14.915  86.510   7.195  0.00  0.00    +0.292 HD
ENDBRANCH 120 123
ENDBRANCH 116 117
ENDBRANCH   1 116
TORSDOF 52
REMARK  Name = ../refined-set-2016/3zxz/3zxz_pocket.pdb
REMARK  242 active torsions:
REMARK  status: ('A' for Active; 'I' for Inactive)
REMARK    1  A    between atoms: _1  and  _3
REMARK    2  A    between atoms: _3  and  _4
REMARK    3  A    between atoms: _3  and  _6
REMARK    4  A    between atoms: _9  and  _11
REMARK    5  A    between atoms: _11  and  _12
REMARK    6  A    between atoms: _11  and  _14
REMARK    7  A    between atoms: _14  and  _15
REMARK    8  A    between atoms: _18  and  _20
REMARK    9  A    between atoms: _20  and  _21
REMARK   10  A    between atoms: _23  and  _25
REMARK   11  A    between atoms: _25  and  _26
REMARK   12  A    between atoms: _25  and  _28
REMARK   13  A    between atoms: _28  and  _29
REMARK   14  A    between atoms: _29  and  _30
REMARK   15  A    between atoms: _30  and  _31
REMARK   16  A    between atoms: _40  and  _42
REMARK   17  A    between atoms: _42  and  _43
REMARK   18  A    between atoms: _45  and  _47
REMARK   19  A    between atoms: _47  and  _48
REMARK   20  A    between atoms: _47  and  _50
REMARK   21  A    between atoms: _52  and  _54
REMARK   22  A    between atoms: _54  and  _55
REMARK   23  A    between atoms: _54  and  _57
REMARK   24  A    between atoms: _60  and  _62
REMARK   25  A    between atoms: _62  and  _63
REMARK   26  A    between atoms: _62  and  _65
REMARK   27  A    between atoms: _65  and  _66
REMARK   28  A    between atoms: _71  and  _72
REMARK   29  A    between atoms: _74  and  _76
REMARK   30  A    between atoms: _76  and  _77
REMARK   31  A    between atoms: _76  and  _79
REMARK   32  A    between atoms: _79  and  _80
REMARK   33  A    between atoms: _85  and  _87
REMARK   34  A    between atoms: _87  and  _88
REMARK   35  A    between atoms: _90  and  _92
REMARK   36  A    between atoms: _92  and  _93
REMARK   37  A    between atoms: _92  and  _95
REMARK   38  A    between atoms: _95  and  _96
REMARK   39  A    between atoms: _101  and  _103
REMARK   40  A    between atoms: _103  and  _104
REMARK   41  A    between atoms: _103  and  _106
REMARK   42  A    between atoms: _108  and  _110
REMARK   43  A    between atoms: _110  and  _111
REMARK   44  A    between atoms: _114  and  _116
REMARK   45  A    between atoms: _116  and  _117
REMARK   46  A    between atoms: _116  and  _119
REMARK   47  A    between atoms: _122  and  _124
REMARK   48  A    between atoms: _124  and  _125
REMARK   49  A    between atoms: _124  and  _127
REMARK   50  A    between atoms: _127  and  _128
REMARK   51  A    between atoms: _128  and  _129
REMARK   52  A    between atoms: _129  and  _130
REMARK   53  A    between atoms: _130  and  _131
REMARK   54  A    between atoms: _135  and  _137
REMARK   55  A    between atoms: _137  and  _138
REMARK   56  A    between atoms: _137  and  _140
REMARK   57  A    between atoms: _140  and  _141
REMARK   58  A    between atoms: _143  and  _145
REMARK   59  A    between atoms: _145  and  _146
REMARK   60  A    between atoms: _145  and  _148
REMARK   61  A    between atoms: _148  and  _149
REMARK   62  A    between atoms: _149  and  _150
REMARK   63  A    between atoms: _152  and  _154
REMARK   64  A    between atoms: _154  and  _155
REMARK   65  A    between atoms: _154  and  _157
REMARK   66  A    between atoms: _157  and  _158
REMARK   67  A    between atoms: _161  and  _163
REMARK   68  A    between atoms: _163  and  _164
REMARK   69  A    between atoms: _163  and  _166
REMARK   70  A    between atoms: _166  and  _167
REMARK   71  A    between atoms: _169  and  _171
REMARK   72  A    between atoms: _171  and  _172
REMARK   73  A    between atoms: _171  and  _174
REMARK   74  A    between atoms: _177  and  _179
REMARK   75  A    between atoms: _179  and  _180
REMARK   76  A    between atoms: _179  and  _182
REMARK   77  A    between atoms: _185  and  _187
REMARK   78  A    between atoms: _187  and  _188
REMARK   79  A    between atoms: _187  and  _190
REMARK   80  A    between atoms: _190  and  _191
REMARK   81  A    between atoms: _195  and  _196
REMARK   82  A    between atoms: _201  and  _203
REMARK   83  A    between atoms: _203  and  _204
REMARK   84  A    between atoms: _203  and  _206
REMARK   85  A    between atoms: _206  and  _207
REMARK   86  A    between atoms: _212  and  _213
REMARK   87  A    between atoms: _215  and  _217
REMARK   88  A    between atoms: _217  and  _218
REMARK   89  A    between atoms: _217  and  _220
REMARK   90  A    between atoms: _220  and  _221
REMARK   91  A    between atoms: _221  and  _222
REMARK   92  A    between atoms: _224  and  _226
REMARK   93  A    between atoms: _226  and  _227
REMARK   94  A    between atoms: _226  and  _229
REMARK   95  A    between atoms: _229  and  _230
REMARK   96  A    between atoms: _230  and  _231
REMARK   97  A    between atoms: _231  and  _232
REMARK   98  A    between atoms: _232  and  _233
REMARK   99  A    between atoms: _237  and  _239
REMARK  100  A    between atoms: _239  and  _240
REMARK  101  A    between atoms: _239  and  _242
REMARK  102  A    between atoms: _242  and  _243
REMARK  103  A    between atoms: _248  and  _250
REMARK  104  A    between atoms: _250  and  _251
REMARK  105  A    between atoms: _253  and  _255
REMARK  106  A    between atoms: _255  and  _256
REMARK  107  A    between atoms: _255  and  _258
REMARK  108  A    between atoms: _258  and  _259
REMARK  109  A    between atoms: _262  and  _264
REMARK  110  A    between atoms: _264  and  _265
REMARK  111  A    between atoms: _264  and  _267
REMARK  112  A    between atoms: _267  and  _268
REMARK  113  A    between atoms: _271  and  _273
REMARK  114  A    between atoms: _273  and  _274
REMARK  115  A    between atoms: _273  and  _276
REMARK  116  A    between atoms: _276  and  _277
REMARK  117  A    between atoms: _277  and  _278
REMARK  118  A    between atoms: _278  and  _279
REMARK  119  A    between atoms: _288  and  _290
REMARK  120  A    between atoms: _290  and  _291
REMARK  121  A    between atoms: _290  and  _293
REMARK  122  A    between atoms: _293  and  _294
REMARK  123  A    between atoms: _299  and  _301
REMARK  124  A    between atoms: _301  and  _302
REMARK  125  A    between atoms: _301  and  _304
REMARK  126  A    between atoms: _304  and  _305
REMARK  127  A    between atoms: _311  and  _313
REMARK  128  A    between atoms: _313  and  _314
REMARK  129  A    between atoms: _313  and  _316
REMARK  130  A    between atoms: _316  and  _317
REMARK  131  A    between atoms: _317  and  _318
REMARK  132  A    between atoms: _318  and  _319
REMARK  133  A    between atoms: _328  and  _330
REMARK  134  A    between atoms: _330  and  _331
REMARK  135  A    between atoms: _330  and  _333
REMARK  136  A    between atoms: _333  and  _334
REMARK  137  A    between atoms: _339  and  _341
REMARK  138  A    between atoms: _341  and  _342
REMARK  139  A    between atoms: _341  and  _344
REMARK  140  A    between atoms: _344  and  _345
REMARK  141  A    between atoms: _348  and  _350
REMARK  142  A    between atoms: _350  and  _351
REMARK  143  A    between atoms: _354  and  _356
REMARK  144  A    between atoms: _356  and  _357
REMARK  145  A    between atoms: _360  and  _362
REMARK  146  A    between atoms: _362  and  _363
REMARK  147  A    between atoms: _362  and  _365
REMARK  148  A    between atoms: _365  and  _366
REMARK  149  A    between atoms: _366  and  _367
REMARK  150  A    between atoms: _367  and  _368
REMARK  151  A    between atoms: _377  and  _379
REMARK  152  A    between atoms: _379  and  _380
REMARK  153  A    between atoms: _379  and  _382
REMARK  154  A    between atoms: _382  and  _383
REMARK  155  A    between atoms: _388  and  _390
REMARK  156  A    between atoms: _390  and  _391
REMARK  157  A    between atoms: _390  and  _393
REMARK  158  A    between atoms: _395  and  _397
REMARK  159  A    between atoms: _397  and  _398
REMARK  160  A    between atoms: _397  and  _400
REMARK  161  A    between atoms: _400  and  _401
REMARK  162  A    between atoms: _401  and  _402
REMARK  163  A    between atoms: _404  and  _406
REMARK  164  A    between atoms: _406  and  _407
REMARK  165  A    between atoms: _406  and  _409
REMARK  166  A    between atoms: _409  and  _410
REMARK  167  A    between atoms: _413  and  _415
REMARK  168  A    between atoms: _415  and  _416
REMARK  169  A    between atoms: _415  and  _418
REMARK  170  A    between atoms: _418  and  _419
REMARK  171  A    between atoms: _422  and  _424
REMARK  172  A    between atoms: _424  and  _425
REMARK  173  A    between atoms: _424  and  _427
REMARK  174  A    between atoms: _427  and  _428
REMARK  175  A    between atoms: _428  and  _429
REMARK  176  A    between atoms: _429  and  _430
REMARK  177  A    between atoms: _430  and  _431
REMARK  178  A    between atoms: _435  and  _437
REMARK  179  A    between atoms: _437  and  _438
REMARK  180  A    between atoms: _437  and  _440
REMARK  181  A    between atoms: _443  and  _445
REMARK  182  A    between atoms: _445  and  _446
REMARK  183  A    between atoms: _449  and  _451
REMARK  184  A    between atoms: _451  and  _452
REMARK  185  A    between atoms: _451  and  _454
REMARK  186  A    between atoms: _454  and  _455
REMARK  187  A    between atoms: _458  and  _460
REMARK  188  A    between atoms: _460  and  _461
REMARK  189  A    between atoms: _460  and  _463
REMARK  190  A    between atoms: _463  and  _464
REMARK  191  A    between atoms: _470  and  _472
REMARK  192  A    between atoms: _472  and  _473
REMARK  193  A    between atoms: _472  and  _475
REMARK  194  A    between atoms: _475  and  _476
REMARK  195  A    between atoms: _479  and  _481
REMARK  196  A    between atoms: _481  and  _482
REMARK  197  A    between atoms: _485  and  _487
REMARK  198  A    between atoms: _487  and  _488
REMARK  199  A    between atoms: _487  and  _490
REMARK  200  A    between atoms: _490  and  _491
REMARK  201  A    between atoms: _491  and  _492
REMARK  202  A    between atoms: _492  and  _493
REMARK  203  A    between atoms: _502  and  _504
REMARK  204  A    between atoms: _504  and  _505
REMARK  205  A    between atoms: _504  and  _507
REMARK  206  A    between atoms: _507  and  _508
REMARK  207  A    between atoms: _511  and  _513
REMARK  208  A    between atoms: _513  and  _514
REMARK  209  A    between atoms: _513  and  _516
REMARK  210  A    between atoms: _516  and  _517
REMARK  211  A    between atoms: _517  and  _518
REMARK  212  A    between atoms: _520  and  _522
REMARK  213  A    between atoms: _522  and  _523
REMARK  214  A    between atoms: _522  and  _525
REMARK  215  A    between atoms: _525  and  _526
REMARK  216  A    between atoms: _531  and  _532
REMARK  217  A    between atoms: _534  and  _536
REMARK  218  A    between atoms: _536  and  _537
REMARK  219  A    between atoms: _536  and  _539
REMARK  220  A    between atoms: _539  and  _540
REMARK  221  A    between atoms: _543  and  _545
REMARK  222  A    between atoms: _545  and  _546
REMARK  223  A    between atoms: _545  and  _548
REMARK  224  A    between atoms: _548  and  _549
REMARK  225  A    between atoms: _549  and  _550
REMARK  226  A    between atoms: _550  and  _551
REMARK  227  A    between atoms: _551  and  _552
REMARK  228  A    between atoms: _556  and  _558
REMARK  229  A    between atoms: _558  and  _559
REMARK  230  A    between atoms: _558  and  _561
REMARK  231  A    between atoms: _561  and  _562
REMARK  232  A    between atoms: _562  and  _563
REMARK  233  A    between atoms: _566  and  _568
REMARK  234  A    between atoms: _568  and  _569
REMARK  235  A    between atoms: _568  and  _571
REMARK  236  A    between atoms: _571  and  _572
REMARK  237  A    between atoms: _577  and  _578
REMARK  238  A    between atoms: _580  and  _582
REMARK  239  A    between atoms: _582  and  _583
REMARK  240  A    between atoms: _582  and  _585
REMARK  241  A    between atoms: _585  and  _586
REMARK  242  A    between atoms: _591  and  _592
REMARK                            x       y       z     vdW  Elec       q    Type
REMARK                         _______ _______ _______ _____ _____    ______ ____
ROOT
ATOM      1  O   HOH     1      26.331  85.223   0.024  0.00  0.00    +0.000 OA
ENDROOT
TORSDOF 0
REMARK  Name = ../refined-set-2016/3zxz/3zxz_pocket.pdb
REMARK  242 active torsions:
REMARK  status: ('A' for Active; 'I' for Inactive)
REMARK    1  A    between atoms: _1  and  _3
REMARK    2  A    between atoms: _3  and  _4
REMARK    3  A    between atoms: _3  and  _6
REMARK    4  A    between atoms: _9  and  _11
REMARK    5  A    between atoms: _11  and  _12
REMARK    6  A    between atoms: _11  and  _14
REMARK    7  A    between atoms: _14  and  _15
REMARK    8  A    between atoms: _18  and  _20
REMARK    9  A    between atoms: _20  and  _21
REMARK   10  A    between atoms: _23  and  _25
REMARK   11  A    between atoms: _25  and  _26
REMARK   12  A    between atoms: _25  and  _28
REMARK   13  A    between atoms: _28  and  _29
REMARK   14  A    between atoms: _29  and  _30
REMARK   15  A    between atoms: _30  and  _31
REMARK   16  A    between atoms: _40  and  _42
REMARK   17  A    between atoms: _42  and  _43
REMARK   18  A    between atoms: _45  and  _47
REMARK   19  A    between atoms: _47  and  _48
REMARK   20  A    between atoms: _47  and  _50
REMARK   21  A    between atoms: _52  and  _54
REMARK   22  A    between atoms: _54  and  _55
REMARK   23  A    between atoms: _54  and  _57
REMARK   24  A    between atoms: _60  and  _62
REMARK   25  A    between atoms: _62  and  _63
REMARK   26  A    between atoms: _62  and  _65
REMARK   27  A    between atoms: _65  and  _66
REMARK   28  A    between atoms: _71  and  _72
REMARK   29  A    between atoms: _74  and  _76
REMARK   30  A    between atoms: _76  and  _77
REMARK   31  A    between atoms: _76  and  _79
REMARK   32  A    between atoms: _79  and  _80
REMARK   33  A    between atoms: _85  and  _87
REMARK   34  A    between atoms: _87  and  _88
REMARK   35  A    between atoms: _90  and  _92
REMARK   36  A    between atoms: _92  and  _93
REMARK   37  A    between atoms: _92  and  _95
REMARK   38  A    between atoms: _95  and  _96
REMARK   39  A    between atoms: _101  and  _103
REMARK   40  A    between atoms: _103  and  _104
REMARK   41  A    between atoms: _103  and  _106
REMARK   42  A    between atoms: _108  and  _110
REMARK   43  A    between atoms: _110  and  _111
REMARK   44  A    between atoms: _114  and  _116
REMARK   45  A    between atoms: _116  and  _117
REMARK   46  A    between atoms: _116  and  _119
REMARK   47  A    between atoms: _122  and  _124
REMARK   48  A    between atoms: _124  and  _125
REMARK   49  A    between atoms: _124  and  _127
REMARK   50  A    between atoms: _127  and  _128
REMARK   51  A    between atoms: _128  and  _129
REMARK   52  A    between atoms: _129  and  _130
REMARK   53  A    between atoms: _130  and  _131
REMARK   54  A    between atoms: _135  and  _137
REMARK   55  A    between atoms: _137  and  _138
REMARK   56  A    between atoms: _137  and  _140
REMARK   57  A    between atoms: _140  and  _141
REMARK   58  A    between atoms: _143  and  _145
REMARK   59  A    between atoms: _145  and  _146
REMARK   60  A    between atoms: _145  and  _148
REMARK   61  A    between atoms: _148  and  _149
REMARK   62  A    between atoms: _149  and  _150
REMARK   63  A    between atoms: _152  and  _154
REMARK   64  A    between atoms: _154  and  _155
REMARK   65  A    between atoms: _154  and  _157
REMARK   66  A    between atoms: _157  and  _158
REMARK   67  A    between atoms: _161  and  _163
REMARK   68  A    between atoms: _163  and  _164
REMARK   69  A    between atoms: _163  and  _166
REMARK   70  A    between atoms: _166  and  _167
REMARK   71  A    between atoms: _169  and  _171
REMARK   72  A    between atoms: _171  and  _172
REMARK   73  A    between atoms: _171  and  _174
REMARK   74  A    between atoms: _177  and  _179
REMARK   75  A    between atoms: _179  and  _180
REMARK   76  A    between atoms: _179  and  _182
REMARK   77  A    between atoms: _185  and  _187
REMARK   78  A    between atoms: _187  and  _188
REMARK   79  A    between atoms: _187  and  _190
REMARK   80  A    between atoms: _190  and  _191
REMARK   81  A    between atoms: _195  and  _196
REMARK   82  A    between atoms: _201  and  _203
REMARK   83  A    between atoms: _203  and  _204
REMARK   84  A    between atoms: _203  and  _206
REMARK   85  A    between atoms: _206  and  _207
REMARK   86  A    between atoms: _212  and  _213
REMARK   87  A    between atoms: _215  and  _217
REMARK   88  A    between atoms: _217  and  _218
REMARK   89  A    between atoms: _217  and  _220
REMARK   90  A    between atoms: _220  and  _221
REMARK   91  A    between atoms: _221  and  _222
REMARK   92  A    between atoms: _224  and  _226
REMARK   93  A    between atoms: _226  and  _227
REMARK   94  A    between atoms: _226  and  _229
REMARK   95  A    between atoms: _229  and  _230
REMARK   96  A    between atoms: _230  and  _231
REMARK   97  A    between atoms: _231  and  _232
REMARK   98  A    between atoms: _232  and  _233
REMARK   99  A    between atoms: _237  and  _239
REMARK  100  A    between atoms: _239  and  _240
REMARK  101  A    between atoms: _239  and  _242
REMARK  102  A    between atoms: _242  and  _243
REMARK  103  A    between atoms: _248  and  _250
REMARK  104  A    between atoms: _250  and  _251
REMARK  105  A    between atoms: _253  and  _255
REMARK  106  A    between atoms: _255  and  _256
REMARK  107  A    between atoms: _255  and  _258
REMARK  108  A    between atoms: _258  and  _259
REMARK  109  A    between atoms: _262  and  _264
REMARK  110  A    between atoms: _264  and  _265
REMARK  111  A    between atoms: _264  and  _267
REMARK  112  A    between atoms: _267  and  _268
REMARK  113  A    between atoms: _271  and  _273
REMARK  114  A    between atoms: _273  and  _274
REMARK  115  A    between atoms: _273  and  _276
REMARK  116  A    between atoms: _276  and  _277
REMARK  117  A    between atoms: _277  and  _278
REMARK  118  A    between atoms: _278  and  _279
REMARK  119  A    between atoms: _288  and  _290
REMARK  120  A    between atoms: _290  and  _291
REMARK  121  A    between atoms: _290  and  _293
REMARK  122  A    between atoms: _293  and  _294
REMARK  123  A    between atoms: _299  and  _301
REMARK  124  A    between atoms: _301  and  _302
REMARK  125  A    between atoms: _301  and  _304
REMARK  126  A    between atoms: _304  and  _305
REMARK  127  A    between atoms: _311  and  _313
REMARK  128  A    between atoms: _313  and  _314
REMARK  129  A    between atoms: _313  and  _316
REMARK  130  A    between atoms: _316  and  _317
REMARK  131  A    between atoms: _317  and  _318
REMARK  132  A    between atoms: _318  and  _319
REMARK  133  A    between atoms: _328  and  _330
REMARK  134  A    between atoms: _330  and  _331
REMARK  135  A    between atoms: _330  and  _333
REMARK  136  A    between atoms: _333  and  _334
REMARK  137  A    between atoms: _339  and  _341
REMARK  138  A    between atoms: _341  and  _342
REMARK  139  A    between atoms: _341  and  _344
REMARK  140  A    between atoms: _344  and  _345
REMARK  141  A    between atoms: _348  and  _350
REMARK  142  A    between atoms: _350  and  _351
REMARK  143  A    between atoms: _354  and  _356
REMARK  144  A    between atoms: _356  and  _357
REMARK  145  A    between atoms: _360  and  _362
REMARK  146  A    between atoms: _362  and  _363
REMARK  147  A    between atoms: _362  and  _365
REMARK  148  A    between atoms: _365  and  _366
REMARK  149  A    between atoms: _366  and  _367
REMARK  150  A    between atoms: _367  and  _368
REMARK  151  A    between atoms: _377  and  _379
REMARK  152  A    between atoms: _379  and  _380
REMARK  153  A    between atoms: _379  and  _382
REMARK  154  A    between atoms: _382  and  _383
REMARK  155  A    between atoms: _388  and  _390
REMARK  156  A    between atoms: _390  and  _391
REMARK  157  A    between atoms: _390  and  _393
REMARK  158  A    between atoms: _395  and  _397
REMARK  159  A    between atoms: _397  and  _398
REMARK  160  A    between atoms: _397  and  _400
REMARK  161  A    between atoms: _400  and  _401
REMARK  162  A    between atoms: _401  and  _402
REMARK  163  A    between atoms: _404  and  _406
REMARK  164  A    between atoms: _406  and  _407
REMARK  165  A    between atoms: _406  and  _409
REMARK  166  A    between atoms: _409  and  _410
REMARK  167  A    between atoms: _413  and  _415
REMARK  168  A    between atoms: _415  and  _416
REMARK  169  A    between atoms: _415  and  _418
REMARK  170  A    between atoms: _418  and  _419
REMARK  171  A    between atoms: _422  and  _424
REMARK  172  A    between atoms: _424  and  _425
REMARK  173  A    between atoms: _424  and  _427
REMARK  174  A    between atoms: _427  and  _428
REMARK  175  A    between atoms: _428  and  _429
REMARK  176  A    between atoms: _429  and  _430
REMARK  177  A    between atoms: _430  and  _431
REMARK  178  A    between atoms: _435  and  _437
REMARK  179  A    between atoms: _437  and  _438
REMARK  180  A    between atoms: _437  and  _440
REMARK  181  A    between atoms: _443  and  _445
REMARK  182  A    between atoms: _445  and  _446
REMARK  183  A    between atoms: _449  and  _451
REMARK  184  A    between atoms: _451  and  _452
REMARK  185  A    between atoms: _451  and  _454
REMARK  186  A    between atoms: _454  and  _455
REMARK  187  A    between atoms: _458  and  _460
REMARK  188  A    between atoms: _460  and  _461
REMARK  189  A    between atoms: _460  and  _463
REMARK  190  A    between atoms: _463  and  _464
REMARK  191  A    between atoms: _470  and  _472
REMARK  192  A    between atoms: _472  and  _473
REMARK  193  A    between atoms: _472  and  _475
REMARK  194  A    between atoms: _475  and  _476
REMARK  195  A    between atoms: _479  and  _481
REMARK  196  A    between atoms: _481  and  _482
REMARK  197  A    between atoms: _485  and  _487
REMARK  198  A    between atoms: _487  and  _488
REMARK  199  A    between atoms: _487  and  _490
REMARK  200  A    between atoms: _490  and  _491
REMARK  201  A    between atoms: _491  and  _492
REMARK  202  A    between atoms: _492  and  _493
REMARK  203  A    between atoms: _502  and  _504
REMARK  204  A    between atoms: _504  and  _505
REMARK  205  A    between atoms: _504  and  _507
REMARK  206  A    between atoms: _507  and  _508
REMARK  207  A    between atoms: _511  and  _513
REMARK  208  A    between atoms: _513  and  _514
REMARK  209  A    between atoms: _513  and  _516
REMARK  210  A    between atoms: _516  and  _517
REMARK  211  A    between atoms: _517  and  _518
REMARK  212  A    between atoms: _520  and  _522
REMARK  213  A    between atoms: _522  and  _523
REMARK  214  A    between atoms: _522  and  _525
REMARK  215  A    between atoms: _525  and  _526
REMARK  216  A    between atoms: _531  and  _532
REMARK  217  A    between atoms: _534  and  _536
REMARK  218  A    between atoms: _536  and  _537
REMARK  219  A    between atoms: _536  and  _539
REMARK  220  A    between atoms: _539  and  _540
REMARK  221  A    between atoms: _543  and  _545
REMARK  222  A    between atoms: _545  and  _546
REMARK  223  A    between atoms: _545  and  _548
REMARK  224  A    between atoms: _548  and  _549
REMARK  225  A    between atoms: _549  and  _550
REMARK  226  A    between atoms: _550  and  _551
REMARK  227  A    between atoms: _551  and  _552
REMARK  228  A    between atoms: _556  and  _558
REMARK  229  A    between atoms: _558  and  _559
REMARK  230  A    between atoms: _558  and  _561
REMARK  231  A    between atoms: _561  and  _562
REMARK  232  A    between atoms: _562  and  _563
REMARK  233  A    between atoms: _566  and  _568
REMARK  234  A    between atoms: _568  and  _569
REMARK  235  A    between atoms: _568  and  _571
REMARK  236  A    between atoms: _571  and  _572
REMARK  237  A    between atoms: _577  and  _578
REMARK  238  A    between atoms: _580  and  _582
REMARK  239  A    between atoms: _582  and  _583
REMARK  240  A    between atoms: _582  and  _585
REMARK  241  A    between atoms: _585  and  _586
REMARK  242  A    between atoms: _591  and  _592
REMARK                            x       y       z     vdW  Elec       q    Type
REMARK                         _______ _______ _______ _____ _____    ______ ____
ROOT
ATOM      1  O   HOH     1      27.048  81.390  -0.550  0.00  0.00    +0.000 OA
ENDROOT
TORSDOF 0
REMARK  Name = ../refined-set-2016/3zxz/3zxz_pocket.pdb
REMARK  242 active torsions:
REMARK  status: ('A' for Active; 'I' for Inactive)
REMARK    1  A    between atoms: _1  and  _3
REMARK    2  A    between atoms: _3  and  _4
REMARK    3  A    between atoms: _3  and  _6
REMARK    4  A    between atoms: _9  and  _11
REMARK    5  A    between atoms: _11  and  _12
REMARK    6  A    between atoms: _11  and  _14
REMARK    7  A    between atoms: _14  and  _15
REMARK    8  A    between atoms: _18  and  _20
REMARK    9  A    between atoms: _20  and  _21
REMARK   10  A    between atoms: _23  and  _25
REMARK   11  A    between atoms: _25  and  _26
REMARK   12  A    between atoms: _25  and  _28
REMARK   13  A    between atoms: _28  and  _29
REMARK   14  A    between atoms: _29  and  _30
REMARK   15  A    between atoms: _30  and  _31
REMARK   16  A    between atoms: _40  and  _42
REMARK   17  A    between atoms: _42  and  _43
REMARK   18  A    between atoms: _45  and  _47
REMARK   19  A    between atoms: _47  and  _48
REMARK   20  A    between atoms: _47  and  _50
REMARK   21  A    between atoms: _52  and  _54
REMARK   22  A    between atoms: _54  and  _55
REMARK   23  A    between atoms: _54  and  _57
REMARK   24  A    between atoms: _60  and  _62
REMARK   25  A    between atoms: _62  and  _63
REMARK   26  A    between atoms: _62  and  _65
REMARK   27  A    between atoms: _65  and  _66
REMARK   28  A    between atoms: _71  and  _72
REMARK   29  A    between atoms: _74  and  _76
REMARK   30  A    between atoms: _76  and  _77
REMARK   31  A    between atoms: _76  and  _79
REMARK   32  A    between atoms: _79  and  _80
REMARK   33  A    between atoms: _85  and  _87
REMARK   34  A    between atoms: _87  and  _88
REMARK   35  A    between atoms: _90  and  _92
REMARK   36  A    between atoms: _92  and  _93
REMARK   37  A    between atoms: _92  and  _95
REMARK   38  A    between atoms: _95  and  _96
REMARK   39  A    between atoms: _101  and  _103
REMARK   40  A    between atoms: _103  and  _104
REMARK   41  A    between atoms: _103  and  _106
REMARK   42  A    between atoms: _108  and  _110
REMARK   43  A    between atoms: _110  and  _111
REMARK   44  A    between atoms: _114  and  _116
REMARK   45  A    between atoms: _116  and  _117
REMARK   46  A    between atoms: _116  and  _119
REMARK   47  A    between atoms: _122  and  _124
REMARK   48  A    between atoms: _124  and  _125
REMARK   49  A    between atoms: _124  and  _127
REMARK   50  A    between atoms: _127  and  _128
REMARK   51  A    between atoms: _128  and  _129
REMARK   52  A    between atoms: _129  and  _130
REMARK   53  A    between atoms: _130  and  _131
REMARK   54  A    between atoms: _135  and  _137
REMARK   55  A    between atoms: _137  and  _138
REMARK   56  A    between atoms: _137  and  _140
REMARK   57  A    between atoms: _140  and  _141
REMARK   58  A    between atoms: _143  and  _145
REMARK   59  A    between atoms: _145  and  _146
REMARK   60  A    between atoms: _145  and  _148
REMARK   61  A    between atoms: _148  and  _149
REMARK   62  A    between atoms: _149  and  _150
REMARK   63  A    between atoms: _152  and  _154
REMARK   64  A    between atoms: _154  and  _155
REMARK   65  A    between atoms: _154  and  _157
REMARK   66  A    between atoms: _157  and  _158
REMARK   67  A    between atoms: _161  and  _163
REMARK   68  A    between atoms: _163  and  _164
REMARK   69  A    between atoms: _163  and  _166
REMARK   70  A    between atoms: _166  and  _167
REMARK   71  A    between atoms: _169  and  _171
REMARK   72  A    between atoms: _171  and  _172
REMARK   73  A    between atoms: _171  and  _174
REMARK   74  A    between atoms: _177  and  _179
REMARK   75  A    between atoms: _179  and  _180
REMARK   76  A    between atoms: _179  and  _182
REMARK   77  A    between atoms: _185  and  _187
REMARK   78  A    between atoms: _187  and  _188
REMARK   79  A    between atoms: _187  and  _190
REMARK   80  A    between atoms: _190  and  _191
REMARK   81  A    between atoms: _195  and  _196
REMARK   82  A    between atoms: _201  and  _203
REMARK   83  A    between atoms: _203  and  _204
REMARK   84  A    between atoms: _203  and  _206
REMARK   85  A    between atoms: _206  and  _207
REMARK   86  A    between atoms: _212  and  _213
REMARK   87  A    between atoms: _215  and  _217
REMARK   88  A    between atoms: _217  and  _218
REMARK   89  A    between atoms: _217  and  _220
REMARK   90  A    between atoms: _220  and  _221
REMARK   91  A    between atoms: _221  and  _222
REMARK   92  A    between atoms: _224  and  _226
REMARK   93  A    between atoms: _226  and  _227
REMARK   94  A    between atoms: _226  and  _229
REMARK   95  A    between atoms: _229  and  _230
REMARK   96  A    between atoms: _230  and  _231
REMARK   97  A    between atoms: _231  and  _232
REMARK   98  A    between atoms: _232  and  _233
REMARK   99  A    between atoms: _237  and  _239
REMARK  100  A    between atoms: _239  and  _240
REMARK  101  A    between atoms: _239  and  _242
REMARK  102  A    between atoms: _242  and  _243
REMARK  103  A    between atoms: _248  and  _250
REMARK  104  A    between atoms: _250  and  _251
REMARK  105  A    between atoms: _253  and  _255
REMARK  106  A    between atoms: _255  and  _256
REMARK  107  A    between atoms: _255  and  _258
REMARK  108  A    between atoms: _258  and  _259
REMARK  109  A    between atoms: _262  and  _264
REMARK  110  A    between atoms: _264  and  _265
REMARK  111  A    between atoms: _264  and  _267
REMARK  112  A    between atoms: _267  and  _268
REMARK  113  A    between atoms: _271  and  _273
REMARK  114  A    between atoms: _273  and  _274
REMARK  115  A    between atoms: _273  and  _276
REMARK  116  A    between atoms: _276  and  _277
REMARK  117  A    between atoms: _277  and  _278
REMARK  118  A    between atoms: _278  and  _279
REMARK  119  A    between atoms: _288  and  _290
REMARK  120  A    between atoms: _290  and  _291
REMARK  121  A    between atoms: _290  and  _293
REMARK  122  A    between atoms: _293  and  _294
REMARK  123  A    between atoms: _299  and  _301
REMARK  124  A    between atoms: _301  and  _302
REMARK  125  A    between atoms: _301  and  _304
REMARK  126  A    between atoms: _304  and  _305
REMARK  127  A    between atoms: _311  and  _313
REMARK  128  A    between atoms: _313  and  _314
REMARK  129  A    between atoms: _313  and  _316
REMARK  130  A    between atoms: _316  and  _317
REMARK  131  A    between atoms: _317  and  _318
REMARK  132  A    between atoms: _318  and  _319
REMARK  133  A    between atoms: _328  and  _330
REMARK  134  A    between atoms: _330  and  _331
REMARK  135  A    between atoms: _330  and  _333
REMARK  136  A    between atoms: _333  and  _334
REMARK  137  A    between atoms: _339  and  _341
REMARK  138  A    between atoms: _341  and  _342
REMARK  139  A    between atoms: _341  and  _344
REMARK  140  A    between atoms: _344  and  _345
REMARK  141  A    between atoms: _348  and  _350
REMARK  142  A    between atoms: _350  and  _351
REMARK  143  A    between atoms: _354  and  _356
REMARK  144  A    between atoms: _356  and  _357
REMARK  145  A    between atoms: _360  and  _362
REMARK  146  A    between atoms: _362  and  _363
REMARK  147  A    between atoms: _362  and  _365
REMARK  148  A    between atoms: _365  and  _366
REMARK  149  A    between atoms: _366  and  _367
REMARK  150  A    between atoms: _367  and  _368
REMARK  151  A    between atoms: _377  and  _379
REMARK  152  A    between atoms: _379  and  _380
REMARK  153  A    between atoms: _379  and  _382
REMARK  154  A    between atoms: _382  and  _383
REMARK  155  A    between atoms: _388  and  _390
REMARK  156  A    between atoms: _390  and  _391
REMARK  157  A    between atoms: _390  and  _393
REMARK  158  A    between atoms: _395  and  _397
REMARK  159  A    between atoms: _397  and  _398
REMARK  160  A    between atoms: _397  and  _400
REMARK  161  A    between atoms: _400  and  _401
REMARK  162  A    between atoms: _401  and  _402
REMARK  163  A    between atoms: _404  and  _406
REMARK  164  A    between atoms: _406  and  _407
REMARK  165  A    between atoms: _406  and  _409
REMARK  166  A    between atoms: _409  and  _410
REMARK  167  A    between atoms: _413  and  _415
REMARK  168  A    between atoms: _415  and  _416
REMARK  169  A    between atoms: _415  and  _418
REMARK  170  A    between atoms: _418  and  _419
REMARK  171  A    between atoms: _422  and  _424
REMARK  172  A    between atoms: _424  and  _425
REMARK  173  A    between atoms: _424  and  _427
REMARK  174  A    between atoms: _427  and  _428
REMARK  175  A    between atoms: _428  and  _429
REMARK  176  A    between atoms: _429  and  _430
REMARK  177  A    between atoms: _430  and  _431
REMARK  178  A    between atoms: _435  and  _437
REMARK  179  A    between atoms: _437  and  _438
REMARK  180  A    between atoms: _437  and  _440
REMARK  181  A    between atoms: _443  and  _445
REMARK  182  A    between atoms: _445  and  _446
REMARK  183  A    between atoms: _449  and  _451
REMARK  184  A    between atoms: _451  and  _452
REMARK  185  A    between atoms: _451  and  _454
REMARK  186  A    between atoms: _454  and  _455
REMARK  187  A    between atoms: _458  and  _460
REMARK  188  A    between atoms: _460  and  _461
REMARK  189  A    between atoms: _460  and  _463
REMARK  190  A    between atoms: _463  and  _464
REMARK  191  A    between atoms: _470  and  _472
REMARK  192  A    between atoms: _472  and  _473
REMARK  193  A    between atoms: _472  and  _475
REMARK  194  A    between atoms: _475  and  _476
REMARK  195  A    between atoms: _479  and  _481
REMARK  196  A    between atoms: _481  and  _482
REMARK  197  A    between atoms: _485  and  _487
REMARK  198  A    between atoms: _487  and  _488
REMARK  199  A    between atoms: _487  and  _490
REMARK  200  A    between atoms: _490  and  _491
REMARK  201  A    between atoms: _491  and  _492
REMARK  202  A    between atoms: _492  and  _493
REMARK  203  A    between atoms: _502  and  _504
REMARK  204  A    between atoms: _504  and  _505
REMARK  205  A    between atoms: _504  and  _507
REMARK  206  A    between atoms: _507  and  _508
REMARK  207  A    between atoms: _511  and  _513
REMARK  208  A    between atoms: _513  and  _514
REMARK  209  A    between atoms: _513  and  _516
REMARK  210  A    between atoms: _516  and  _517
REMARK  211  A    between atoms: _517  and  _518
REMARK  212  A    between atoms: _520  and  _522
REMARK  213  A    between atoms: _522  and  _523
REMARK  214  A    between atoms: _522  and  _525
REMARK  215  A    between atoms: _525  and  _526
REMARK  216  A    between atoms: _531  and  _532
REMARK  217  A    between atoms: _534  and  _536
REMARK  218  A    between atoms: _536  and  _537
REMARK  219  A    between atoms: _536  and  _539
REMARK  220  A    between atoms: _539  and  _540
REMARK  221  A    between atoms: _543  and  _545
REMARK  222  A    between atoms: _545  and  _546
REMARK  223  A    between atoms: _545  and  _548
REMARK  224  A    between atoms: _548  and  _549
REMARK  225  A    between atoms: _549  and  _550
REMARK  226  A    between atoms: _550  and  _551
REMARK  227  A    between atoms: _551  and  _552
REMARK  228  A    between atoms: _556  and  _558
REMARK  229  A    between atoms: _558  and  _559
REMARK  230  A    between atoms: _558  and  _561
REMARK  231  A    between atoms: _561  and  _562
REMARK  232  A    between atoms: _562  and  _563
REMARK  233  A    between atoms: _566  and  _568
REMARK  234  A    between atoms: _568  and  _569
REMARK  235  A    between atoms: _568  and  _571
REMARK  236  A    between atoms: _571  and  _572
REMARK  237  A    between atoms: _577  and  _578
REMARK  238  A    between atoms: _580  and  _582
REMARK  239  A    between atoms: _582  and  _583
REMARK  240  A    between atoms: _582  and  _585
REMARK  241  A    between atoms: _585  and  _586
REMARK  242  A    between atoms: _591  and  _592
REMARK                            x       y       z     vdW  Elec       q    Type
REMARK                         _______ _______ _______ _____ _____    ______ ____
ROOT
ATOM      1  O   HOH     1      24.282  79.686  -1.131  0.00  0.00    +0.000 OA
ENDROOT
TORSDOF 0
REMARK  Name = ../refined-set-2016/3zxz/3zxz_pocket.pdb
REMARK  242 active torsions:
REMARK  status: ('A' for Active; 'I' for Inactive)
REMARK    1  A    between atoms: _1  and  _3
REMARK    2  A    between atoms: _3  and  _4
REMARK    3  A    between atoms: _3  and  _6
REMARK    4  A    between atoms: _9  and  _11
REMARK    5  A    between atoms: _11  and  _12
REMARK    6  A    between atoms: _11  and  _14
REMARK    7  A    between atoms: _14  and  _15
REMARK    8  A    between atoms: _18  and  _20
REMARK    9  A    between atoms: _20  and  _21
REMARK   10  A    between atoms: _23  and  _25
REMARK   11  A    between atoms: _25  and  _26
REMARK   12  A    between atoms: _25  and  _28
REMARK   13  A    between atoms: _28  and  _29
REMARK   14  A    between atoms: _29  and  _30
REMARK   15  A    between atoms: _30  and  _31
REMARK   16  A    between atoms: _40  and  _42
REMARK   17  A    between atoms: _42  and  _43
REMARK   18  A    between atoms: _45  and  _47
REMARK   19  A    between atoms: _47  and  _48
REMARK   20  A    between atoms: _47  and  _50
REMARK   21  A    between atoms: _52  and  _54
REMARK   22  A    between atoms: _54  and  _55
REMARK   23  A    between atoms: _54  and  _57
REMARK   24  A    between atoms: _60  and  _62
REMARK   25  A    between atoms: _62  and  _63
REMARK   26  A    between atoms: _62  and  _65
REMARK   27  A    between atoms: _65  and  _66
REMARK   28  A    between atoms: _71  and  _72
REMARK   29  A    between atoms: _74  and  _76
REMARK   30  A    between atoms: _76  and  _77
REMARK   31  A    between atoms: _76  and  _79
REMARK   32  A    between atoms: _79  and  _80
REMARK   33  A    between atoms: _85  and  _87
REMARK   34  A    between atoms: _87  and  _88
REMARK   35  A    between atoms: _90  and  _92
REMARK   36  A    between atoms: _92  and  _93
REMARK   37  A    between atoms: _92  and  _95
REMARK   38  A    between atoms: _95  and  _96
REMARK   39  A    between atoms: _101  and  _103
REMARK   40  A    between atoms: _103  and  _104
REMARK   41  A    between atoms: _103  and  _106
REMARK   42  A    between atoms: _108  and  _110
REMARK   43  A    between atoms: _110  and  _111
REMARK   44  A    between atoms: _114  and  _116
REMARK   45  A    between atoms: _116  and  _117
REMARK   46  A    between atoms: _116  and  _119
REMARK   47  A    between atoms: _122  and  _124
REMARK   48  A    between atoms: _124  and  _125
REMARK   49  A    between atoms: _124  and  _127
REMARK   50  A    between atoms: _127  and  _128
REMARK   51  A    between atoms: _128  and  _129
REMARK   52  A    between atoms: _129  and  _130
REMARK   53  A    between atoms: _130  and  _131
REMARK   54  A    between atoms: _135  and  _137
REMARK   55  A    between atoms: _137  and  _138
REMARK   56  A    between atoms: _137  and  _140
REMARK   57  A    between atoms: _140  and  _141
REMARK   58  A    between atoms: _143  and  _145
REMARK   59  A    between atoms: _145  and  _146
REMARK   60  A    between atoms: _145  and  _148
REMARK   61  A    between atoms: _148  and  _149
REMARK   62  A    between atoms: _149  and  _150
REMARK   63  A    between atoms: _152  and  _154
REMARK   64  A    between atoms: _154  and  _155
REMARK   65  A    between atoms: _154  and  _157
REMARK   66  A    between atoms: _157  and  _158
REMARK   67  A    between atoms: _161  and  _163
REMARK   68  A    between atoms: _163  and  _164
REMARK   69  A    between atoms: _163  and  _166
REMARK   70  A    between atoms: _166  and  _167
REMARK   71  A    between atoms: _169  and  _171
REMARK   72  A    between atoms: _171  and  _172
REMARK   73  A    between atoms: _171  and  _174
REMARK   74  A    between atoms: _177  and  _179
REMARK   75  A    between atoms: _179  and  _180
REMARK   76  A    between atoms: _179  and  _182
REMARK   77  A    between atoms: _185  and  _187
REMARK   78  A    between atoms: _187  and  _188
REMARK   79  A    between atoms: _187  and  _190
REMARK   80  A    between atoms: _190  and  _191
REMARK   81  A    between atoms: _195  and  _196
REMARK   82  A    between atoms: _201  and  _203
REMARK   83  A    between atoms: _203  and  _204
REMARK   84  A    between atoms: _203  and  _206
REMARK   85  A    between atoms: _206  and  _207
REMARK   86  A    between atoms: _212  and  _213
REMARK   87  A    between atoms: _215  and  _217
REMARK   88  A    between atoms: _217  and  _218
REMARK   89  A    between atoms: _217  and  _220
REMARK   90  A    between atoms: _220  and  _221
REMARK   91  A    between atoms: _221  and  _222
REMARK   92  A    between atoms: _224  and  _226
REMARK   93  A    between atoms: _226  and  _227
REMARK   94  A    between atoms: _226  and  _229
REMARK   95  A    between atoms: _229  and  _230
REMARK   96  A    between atoms: _230  and  _231
REMARK   97  A    between atoms: _231  and  _232
REMARK   98  A    between atoms: _232  and  _233
REMARK   99  A    between atoms: _237  and  _239
REMARK  100  A    between atoms: _239  and  _240
REMARK  101  A    between atoms: _239  and  _242
REMARK  102  A    between atoms: _242  and  _243
REMARK  103  A    between atoms: _248  and  _250
REMARK  104  A    between atoms: _250  and  _251
REMARK  105  A    between atoms: _253  and  _255
REMARK  106  A    between atoms: _255  and  _256
REMARK  107  A    between atoms: _255  and  _258
REMARK  108  A    between atoms: _258  and  _259
REMARK  109  A    between atoms: _262  and  _264
REMARK  110  A    between atoms: _264  and  _265
REMARK  111  A    between atoms: _264  and  _267
REMARK  112  A    between atoms: _267  and  _268
REMARK  113  A    between atoms: _271  and  _273
REMARK  114  A    between atoms: _273  and  _274
REMARK  115  A    between atoms: _273  and  _276
REMARK  116  A    between atoms: _276  and  _277
REMARK  117  A    between atoms: _277  and  _278
REMARK  118  A    between atoms: _278  and  _279
REMARK  119  A    between atoms: _288  and  _290
REMARK  120  A    between atoms: _290  and  _291
REMARK  121  A    between atoms: _290  and  _293
REMARK  122  A    between atoms: _293  and  _294
REMARK  123  A    between atoms: _299  and  _301
REMARK  124  A    between atoms: _301  and  _302
REMARK  125  A    between atoms: _301  and  _304
REMARK  126  A    between atoms: _304  and  _305
REMARK  127  A    between atoms: _311  and  _313
REMARK  128  A    between atoms: _313  and  _314
REMARK  129  A    between atoms: _313  and  _316
REMARK  130  A    between atoms: _316  and  _317
REMARK  131  A    between atoms: _317  and  _318
REMARK  132  A    between atoms: _318  and  _319
REMARK  133  A    between atoms: _328  and  _330
REMARK  134  A    between atoms: _330  and  _331
REMARK  135  A    between atoms: _330  and  _333
REMARK  136  A    between atoms: _333  and  _334
REMARK  137  A    between atoms: _339  and  _341
REMARK  138  A    between atoms: _341  and  _342
REMARK  139  A    between atoms: _341  and  _344
REMARK  140  A    between atoms: _344  and  _345
REMARK  141  A    between atoms: _348  and  _350
REMARK  142  A    between atoms: _350  and  _351
REMARK  143  A    between atoms: _354  and  _356
REMARK  144  A    between atoms: _356  and  _357
REMARK  145  A    between atoms: _360  and  _362
REMARK  146  A    between atoms: _362  and  _363
REMARK  147  A    between atoms: _362  and  _365
REMARK  148  A    between atoms: _365  and  _366
REMARK  149  A    between atoms: _366  and  _367
REMARK  150  A    between atoms: _367  and  _368
REMARK  151  A    between atoms: _377  and  _379
REMARK  152  A    between atoms: _379  and  _380
REMARK  153  A    between atoms: _379  and  _382
REMARK  154  A    between atoms: _382  and  _383
REMARK  155  A    between atoms: _388  and  _390
REMARK  156  A    between atoms: _390  and  _391
REMARK  157  A    between atoms: _390  and  _393
REMARK  158  A    between atoms: _395  and  _397
REMARK  159  A    between atoms: _397  and  _398
REMARK  160  A    between atoms: _397  and  _400
REMARK  161  A    between atoms: _400  and  _401
REMARK  162  A    between atoms: _401  and  _402
REMARK  163  A    between atoms: _404  and  _406
REMARK  164  A    between atoms: _406  and  _407
REMARK  165  A    between atoms: _406  and  _409
REMARK  166  A    between atoms: _409  and  _410
REMARK  167  A    between atoms: _413  and  _415
REMARK  168  A    between atoms: _415  and  _416
REMARK  169  A    between atoms: _415  and  _418
REMARK  170  A    between atoms: _418  and  _419
REMARK  171  A    between atoms: _422  and  _424
REMARK  172  A    between atoms: _424  and  _425
REMARK  173  A    between atoms: _424  and  _427
REMARK  174  A    between atoms: _427  and  _428
REMARK  175  A    between atoms: _428  and  _429
REMARK  176  A    between atoms: _429  and  _430
REMARK  177  A    between atoms: _430  and  _431
REMARK  178  A    between atoms: _435  and  _437
REMARK  179  A    between atoms: _437  and  _438
REMARK  180  A    between atoms: _437  and  _440
REMARK  181  A    between atoms: _443  and  _445
REMARK  182  A    between atoms: _445  and  _446
REMARK  183  A    between atoms: _449  and  _451
REMARK  184  A    between atoms: _451  and  _452
REMARK  185  A    between atoms: _451  and  _454
REMARK  186  A    between atoms: _454  and  _455
REMARK  187  A    between atoms: _458  and  _460
REMARK  188  A    between atoms: _460  and  _461
REMARK  189  A    between atoms: _460  and  _463
REMARK  190  A    between atoms: _463  and  _464
REMARK  191  A    between atoms: _470  and  _472
REMARK  192  A    between atoms: _472  and  _473
REMARK  193  A    between atoms: _472  and  _475
REMARK  194  A    between atoms: _475  and  _476
REMARK  195  A    between atoms: _479  and  _481
REMARK  196  A    between atoms: _481  and  _482
REMARK  197  A    between atoms: _485  and  _487
REMARK  198  A    between atoms: _487  and  _488
REMARK  199  A    between atoms: _487  and  _490
REMARK  200  A    between atoms: _490  and  _491
REMARK  201  A    between atoms: _491  and  _492
REMARK  202  A    between atoms: _492  and  _493
REMARK  203  A    between atoms: _502  and  _504
REMARK  204  A    between atoms: _504  and  _505
REMARK  205  A    between atoms: _504  and  _507
REMARK  206  A    between atoms: _507  and  _508
REMARK  207  A    between atoms: _511  and  _513
REMARK  208  A    between atoms: _513  and  _514
REMARK  209  A    between atoms: _513  and  _516
REMARK  210  A    between atoms: _516  and  _517
REMARK  211  A    between atoms: _517  and  _518
REMARK  212  A    between atoms: _520  and  _522
REMARK  213  A    between atoms: _522  and  _523
REMARK  214  A    between atoms: _522  and  _525
REMARK  215  A    between atoms: _525  and  _526
REMARK  216  A    between atoms: _531  and  _532
REMARK  217  A    between atoms: _534  and  _536
REMARK  218  A    between atoms: _536  and  _537
REMARK  219  A    between atoms: _536  and  _539
REMARK  220  A    between atoms: _539  and  _540
REMARK  221  A    between atoms: _543  and  _545
REMARK  222  A    between atoms: _545  and  _546
REMARK  223  A    between atoms: _545  and  _548
REMARK  224  A    between atoms: _548  and  _549
REMARK  225  A    between atoms: _549  and  _550
REMARK  226  A    between atoms: _550  and  _551
REMARK  227  A    between atoms: _551  and  _552
REMARK  228  A    between atoms: _556  and  _558
REMARK  229  A    between atoms: _558  and  _559
REMARK  230  A    between atoms: _558  and  _561
REMARK  231  A    between atoms: _561  and  _562
REMARK  232  A    between atoms: _562  and  _563
REMARK  233  A    between atoms: _566  and  _568
REMARK  234  A    between atoms: _568  and  _569
REMARK  235  A    between atoms: _568  and  _571
REMARK  236  A    between atoms: _571  and  _572
REMARK  237  A    between atoms: _577  and  _578
REMARK  238  A    between atoms: _580  and  _582
REMARK  239  A    between atoms: _582  and  _583
REMARK  240  A    between atoms: _582  and  _585
REMARK  241  A    between atoms: _585  and  _586
REMARK  242  A    between atoms: _591  and  _592
REMARK                            x       y       z     vdW  Elec       q    Type
REMARK                         _______ _______ _______ _____ _____    ______ ____
ROOT
ATOM      1  O   HOH     1      27.558  90.379  -2.086  0.00  0.00    +0.000 OA
ENDROOT
TORSDOF 0
REMARK  Name = ../refined-set-2016/3zxz/3zxz_pocket.pdb
REMARK  242 active torsions:
REMARK  status: ('A' for Active; 'I' for Inactive)
REMARK    1  A    between atoms: _1  and  _3
REMARK    2  A    between atoms: _3  and  _4
REMARK    3  A    between atoms: _3  and  _6
REMARK    4  A    between atoms: _9  and  _11
REMARK    5  A    between atoms: _11  and  _12
REMARK    6  A    between atoms: _11  and  _14
REMARK    7  A    between atoms: _14  and  _15
REMARK    8  A    between atoms: _18  and  _20
REMARK    9  A    between atoms: _20  and  _21
REMARK   10  A    between atoms: _23  and  _25
REMARK   11  A    between atoms: _25  and  _26
REMARK   12  A    between atoms: _25  and  _28
REMARK   13  A    between atoms: _28  and  _29
REMARK   14  A    between atoms: _29  and  _30
REMARK   15  A    between atoms: _30  and  _31
REMARK   16  A    between atoms: _40  and  _42
REMARK   17  A    between atoms: _42  and  _43
REMARK   18  A    between atoms: _45  and  _47
REMARK   19  A    between atoms: _47  and  _48
REMARK   20  A    between atoms: _47  and  _50
REMARK   21  A    between atoms: _52  and  _54
REMARK   22  A    between atoms: _54  and  _55
REMARK   23  A    between atoms: _54  and  _57
REMARK   24  A    between atoms: _60  and  _62
REMARK   25  A    between atoms: _62  and  _63
REMARK   26  A    between atoms: _62  and  _65
REMARK   27  A    between atoms: _65  and  _66
REMARK   28  A    between atoms: _71  and  _72
REMARK   29  A    between atoms: _74  and  _76
REMARK   30  A    between atoms: _76  and  _77
REMARK   31  A    between atoms: _76  and  _79
REMARK   32  A    between atoms: _79  and  _80
REMARK   33  A    between atoms: _85  and  _87
REMARK   34  A    between atoms: _87  and  _88
REMARK   35  A    between atoms: _90  and  _92
REMARK   36  A    between atoms: _92  and  _93
REMARK   37  A    between atoms: _92  and  _95
REMARK   38  A    between atoms: _95  and  _96
REMARK   39  A    between atoms: _101  and  _103
REMARK   40  A    between atoms: _103  and  _104
REMARK   41  A    between atoms: _103  and  _106
REMARK   42  A    between atoms: _108  and  _110
REMARK   43  A    between atoms: _110  and  _111
REMARK   44  A    between atoms: _114  and  _116
REMARK   45  A    between atoms: _116  and  _117
REMARK   46  A    between atoms: _116  and  _119
REMARK   47  A    between atoms: _122  and  _124
REMARK   48  A    between atoms: _124  and  _125
REMARK   49  A    between atoms: _124  and  _127
REMARK   50  A    between atoms: _127  and  _128
REMARK   51  A    between atoms: _128  and  _129
REMARK   52  A    between atoms: _129  and  _130
REMARK   53  A    between atoms: _130  and  _131
REMARK   54  A    between atoms: _135  and  _137
REMARK   55  A    between atoms: _137  and  _138
REMARK   56  A    between atoms: _137  and  _140
REMARK   57  A    between atoms: _140  and  _141
REMARK   58  A    between atoms: _143  and  _145
REMARK   59  A    between atoms: _145  and  _146
REMARK   60  A    between atoms: _145  and  _148
REMARK   61  A    between atoms: _148  and  _149
REMARK   62  A    between atoms: _149  and  _150
REMARK   63  A    between atoms: _152  and  _154
REMARK   64  A    between atoms: _154  and  _155
REMARK   65  A    between atoms: _154  and  _157
REMARK   66  A    between atoms: _157  and  _158
REMARK   67  A    between atoms: _161  and  _163
REMARK   68  A    between atoms: _163  and  _164
REMARK   69  A    between atoms: _163  and  _166
REMARK   70  A    between atoms: _166  and  _167
REMARK   71  A    between atoms: _169  and  _171
REMARK   72  A    between atoms: _171  and  _172
REMARK   73  A    between atoms: _171  and  _174
REMARK   74  A    between atoms: _177  and  _179
REMARK   75  A    between atoms: _179  and  _180
REMARK   76  A    between atoms: _179  and  _182
REMARK   77  A    between atoms: _185  and  _187
REMARK   78  A    between atoms: _187  and  _188
REMARK   79  A    between atoms: _187  and  _190
REMARK   80  A    between atoms: _190  and  _191
REMARK   81  A    between atoms: _195  and  _196
REMARK   82  A    between atoms: _201  and  _203
REMARK   83  A    between atoms: _203  and  _204
REMARK   84  A    between atoms: _203  and  _206
REMARK   85  A    between atoms: _206  and  _207
REMARK   86  A    between atoms: _212  and  _213
REMARK   87  A    between atoms: _215  and  _217
REMARK   88  A    between atoms: _217  and  _218
REMARK   89  A    between atoms: _217  and  _220
REMARK   90  A    between atoms: _220  and  _221
REMARK   91  A    between atoms: _221  and  _222
REMARK   92  A    between atoms: _224  and  _226
REMARK   93  A    between atoms: _226  and  _227
REMARK   94  A    between atoms: _226  and  _229
REMARK   95  A    between atoms: _229  and  _230
REMARK   96  A    between atoms: _230  and  _231
REMARK   97  A    between atoms: _231  and  _232
REMARK   98  A    between atoms: _232  and  _233
REMARK   99  A    between atoms: _237  and  _239
REMARK  100  A    between atoms: _239  and  _240
REMARK  101  A    between atoms: _239  and  _242
REMARK  102  A    between atoms: _242  and  _243
REMARK  103  A    between atoms: _248  and  _250
REMARK  104  A    between atoms: _250  and  _251
REMARK  105  A    between atoms: _253  and  _255
REMARK  106  A    between atoms: _255  and  _256
REMARK  107  A    between atoms: _255  and  _258
REMARK  108  A    between atoms: _258  and  _259
REMARK  109  A    between atoms: _262  and  _264
REMARK  110  A    between atoms: _264  and  _265
REMARK  111  A    between atoms: _264  and  _267
REMARK  112  A    between atoms: _267  and  _268
REMARK  113  A    between atoms: _271  and  _273
REMARK  114  A    between atoms: _273  and  _274
REMARK  115  A    between atoms: _273  and  _276
REMARK  116  A    between atoms: _276  and  _277
REMARK  117  A    between atoms: _277  and  _278
REMARK  118  A    between atoms: _278  and  _279
REMARK  119  A    between atoms: _288  and  _290
REMARK  120  A    between atoms: _290  and  _291
REMARK  121  A    between atoms: _290  and  _293
REMARK  122  A    between atoms: _293  and  _294
REMARK  123  A    between atoms: _299  and  _301
REMARK  124  A    between atoms: _301  and  _302
REMARK  125  A    between atoms: _301  and  _304
REMARK  126  A    between atoms: _304  and  _305
REMARK  127  A    between atoms: _311  and  _313
REMARK  128  A    between atoms: _313  and  _314
REMARK  129  A    between atoms: _313  and  _316
REMARK  130  A    between atoms: _316  and  _317
REMARK  131  A    between atoms: _317  and  _318
REMARK  132  A    between atoms: _318  and  _319
REMARK  133  A    between atoms: _328  and  _330
REMARK  134  A    between atoms: _330  and  _331
REMARK  135  A    between atoms: _330  and  _333
REMARK  136  A    between atoms: _333  and  _334
REMARK  137  A    between atoms: _339  and  _341
REMARK  138  A    between atoms: _341  and  _342
REMARK  139  A    between atoms: _341  and  _344
REMARK  140  A    between atoms: _344  and  _345
REMARK  141  A    between atoms: _348  and  _350
REMARK  142  A    between atoms: _350  and  _351
REMARK  143  A    between atoms: _354  and  _356
REMARK  144  A    between atoms: _356  and  _357
REMARK  145  A    between atoms: _360  and  _362
REMARK  146  A    between atoms: _362  and  _363
REMARK  147  A    between atoms: _362  and  _365
REMARK  148  A    between atoms: _365  and  _366
REMARK  149  A    between atoms: _366  and  _367
REMARK  150  A    between atoms: _367  and  _368
REMARK  151  A    between atoms: _377  and  _379
REMARK  152  A    between atoms: _379  and  _380
REMARK  153  A    between atoms: _379  and  _382
REMARK  154  A    between atoms: _382  and  _383
REMARK  155  A    between atoms: _388  and  _390
REMARK  156  A    between atoms: _390  and  _391
REMARK  157  A    between atoms: _390  and  _393
REMARK  158  A    between atoms: _395  and  _397
REMARK  159  A    between atoms: _397  and  _398
REMARK  160  A    between atoms: _397  and  _400
REMARK  161  A    between atoms: _400  and  _401
REMARK  162  A    between atoms: _401  and  _402
REMARK  163  A    between atoms: _404  and  _406
REMARK  164  A    between atoms: _406  and  _407
REMARK  165  A    between atoms: _406  and  _409
REMARK  166  A    between atoms: _409  and  _410
REMARK  167  A    between atoms: _413  and  _415
REMARK  168  A    between atoms: _415  and  _416
REMARK  169  A    between atoms: _415  and  _418
REMARK  170  A    between atoms: _418  and  _419
REMARK  171  A    between atoms: _422  and  _424
REMARK  172  A    between atoms: _424  and  _425
REMARK  173  A    between atoms: _424  and  _427
REMARK  174  A    between atoms: _427  and  _428
REMARK  175  A    between atoms: _428  and  _429
REMARK  176  A    between atoms: _429  and  _430
REMARK  177  A    between atoms: _430  and  _431
REMARK  178  A    between atoms: _435  and  _437
REMARK  179  A    between atoms: _437  and  _438
REMARK  180  A    between atoms: _437  and  _440
REMARK  181  A    between atoms: _443  and  _445
REMARK  182  A    between atoms: _445  and  _446
REMARK  183  A    between atoms: _449  and  _451
REMARK  184  A    between atoms: _451  and  _452
REMARK  185  A    between atoms: _451  and  _454
REMARK  186  A    between atoms: _454  and  _455
REMARK  187  A    between atoms: _458  and  _460
REMARK  188  A    between atoms: _460  and  _461
REMARK  189  A    between atoms: _460  and  _463
REMARK  190  A    between atoms: _463  and  _464
REMARK  191  A    between atoms: _470  and  _472
REMARK  192  A    between atoms: _472  and  _473
REMARK  193  A    between atoms: _472  and  _475
REMARK  194  A    between atoms: _475  and  _476
REMARK  195  A    between atoms: _479  and  _481
REMARK  196  A    between atoms: _481  and  _482
REMARK  197  A    between atoms: _485  and  _487
REMARK  198  A    between atoms: _487  and  _488
REMARK  199  A    between atoms: _487  and  _490
REMARK  200  A    between atoms: _490  and  _491
REMARK  201  A    between atoms: _491  and  _492
REMARK  202  A    between atoms: _492  and  _493
REMARK  203  A    between atoms: _502  and  _504
REMARK  204  A    between atoms: _504  and  _505
REMARK  205  A    between atoms: _504  and  _507
REMARK  206  A    between atoms: _507  and  _508
REMARK  207  A    between atoms: _511  and  _513
REMARK  208  A    between atoms: _513  and  _514
REMARK  209  A    between atoms: _513  and  _516
REMARK  210  A    between atoms: _516  and  _517
REMARK  211  A    between atoms: _517  and  _518
REMARK  212  A    between atoms: _520  and  _522
REMARK  213  A    between atoms: _522  and  _523
REMARK  214  A    between atoms: _522  and  _525
REMARK  215  A    between atoms: _525  and  _526
REMARK  216  A    between atoms: _531  and  _532
REMARK  217  A    between atoms: _534  and  _536
REMARK  218  A    between atoms: _536  and  _537
REMARK  219  A    between atoms: _536  and  _539
REMARK  220  A    between atoms: _539  and  _540
REMARK  221  A    between atoms: _543  and  _545
REMARK  222  A    between atoms: _545  and  _546
REMARK  223  A    between atoms: _545  and  _548
REMARK  224  A    between atoms: _548  and  _549
REMARK  225  A    between atoms: _549  and  _550
REMARK  226  A    between atoms: _550  and  _551
REMARK  227  A    between atoms: _551  and  _552
REMARK  228  A    between atoms: _556  and  _558
REMARK  229  A    between atoms: _558  and  _559
REMARK  230  A    between atoms: _558  and  _561
REMARK  231  A    between atoms: _561  and  _562
REMARK  232  A    between atoms: _562  and  _563
REMARK  233  A    between atoms: _566  and  _568
REMARK  234  A    between atoms: _568  and  _569
REMARK  235  A    between atoms: _568  and  _571
REMARK  236  A    between atoms: _571  and  _572
REMARK  237  A    between atoms: _577  and  _578
REMARK  238  A    between atoms: _580  and  _582
REMARK  239  A    between atoms: _582  and  _583
REMARK  240  A    between atoms: _582  and  _585
REMARK  241  A    between atoms: _585  and  _586
REMARK  242  A    between atoms: _591  and  _592
REMARK                            x       y       z     vdW  Elec       q    Type
REMARK                         _______ _______ _______ _____ _____    ______ ____
ROOT
ATOM      1  O   HOH     1      18.649  85.238  -3.566  0.00  0.00    +0.000 OA
ENDROOT
TORSDOF 0
REMARK  Name = ../refined-set-2016/3zxz/3zxz_pocket.pdb
REMARK  242 active torsions:
REMARK  status: ('A' for Active; 'I' for Inactive)
REMARK    1  A    between atoms: _1  and  _3
REMARK    2  A    between atoms: _3  and  _4
REMARK    3  A    between atoms: _3  and  _6
REMARK    4  A    between atoms: _9  and  _11
REMARK    5  A    between atoms: _11  and  _12
REMARK    6  A    between atoms: _11  and  _14
REMARK    7  A    between atoms: _14  and  _15
REMARK    8  A    between atoms: _18  and  _20
REMARK    9  A    between atoms: _20  and  _21
REMARK   10  A    between atoms: _23  and  _25
REMARK   11  A    between atoms: _25  and  _26
REMARK   12  A    between atoms: _25  and  _28
REMARK   13  A    between atoms: _28  and  _29
REMARK   14  A    between atoms: _29  and  _30
REMARK   15  A    between atoms: _30  and  _31
REMARK   16  A    between atoms: _40  and  _42
REMARK   17  A    between atoms: _42  and  _43
REMARK   18  A    between atoms: _45  and  _47
REMARK   19  A    between atoms: _47  and  _48
REMARK   20  A    between atoms: _47  and  _50
REMARK   21  A    between atoms: _52  and  _54
REMARK   22  A    between atoms: _54  and  _55
REMARK   23  A    between atoms: _54  and  _57
REMARK   24  A    between atoms: _60  and  _62
REMARK   25  A    between atoms: _62  and  _63
REMARK   26  A    between atoms: _62  and  _65
REMARK   27  A    between atoms: _65  and  _66
REMARK   28  A    between atoms: _71  and  _72
REMARK   29  A    between atoms: _74  and  _76
REMARK   30  A    between atoms: _76  and  _77
REMARK   31  A    between atoms: _76  and  _79
REMARK   32  A    between atoms: _79  and  _80
REMARK   33  A    between atoms: _85  and  _87
REMARK   34  A    between atoms: _87  and  _88
REMARK   35  A    between atoms: _90  and  _92
REMARK   36  A    between atoms: _92  and  _93
REMARK   37  A    between atoms: _92  and  _95
REMARK   38  A    between atoms: _95  and  _96
REMARK   39  A    between atoms: _101  and  _103
REMARK   40  A    between atoms: _103  and  _104
REMARK   41  A    between atoms: _103  and  _106
REMARK   42  A    between atoms: _108  and  _110
REMARK   43  A    between atoms: _110  and  _111
REMARK   44  A    between atoms: _114  and  _116
REMARK   45  A    between atoms: _116  and  _117
REMARK   46  A    between atoms: _116  and  _119
REMARK   47  A    between atoms: _122  and  _124
REMARK   48  A    between atoms: _124  and  _125
REMARK   49  A    between atoms: _124  and  _127
REMARK   50  A    between atoms: _127  and  _128
REMARK   51  A    between atoms: _128  and  _129
REMARK   52  A    between atoms: _129  and  _130
REMARK   53  A    between atoms: _130  and  _131
REMARK   54  A    between atoms: _135  and  _137
REMARK   55  A    between atoms: _137  and  _138
REMARK   56  A    between atoms: _137  and  _140
REMARK   57  A    between atoms: _140  and  _141
REMARK   58  A    between atoms: _143  and  _145
REMARK   59  A    between atoms: _145  and  _146
REMARK   60  A    between atoms: _145  and  _148
REMARK   61  A    between atoms: _148  and  _149
REMARK   62  A    between atoms: _149  and  _150
REMARK   63  A    between atoms: _152  and  _154
REMARK   64  A    between atoms: _154  and  _155
REMARK   65  A    between atoms: _154  and  _157
REMARK   66  A    between atoms: _157  and  _158
REMARK   67  A    between atoms: _161  and  _163
REMARK   68  A    between atoms: _163  and  _164
REMARK   69  A    between atoms: _163  and  _166
REMARK   70  A    between atoms: _166  and  _167
REMARK   71  A    between atoms: _169  and  _171
REMARK   72  A    between atoms: _171  and  _172
REMARK   73  A    between atoms: _171  and  _174
REMARK   74  A    between atoms: _177  and  _179
REMARK   75  A    between atoms: _179  and  _180
REMARK   76  A    between atoms: _179  and  _182
REMARK   77  A    between atoms: _185  and  _187
REMARK   78  A    between atoms: _187  and  _188
REMARK   79  A    between atoms: _187  and  _190
REMARK   80  A    between atoms: _190  and  _191
REMARK   81  A    between atoms: _195  and  _196
REMARK   82  A    between atoms: _201  and  _203
REMARK   83  A    between atoms: _203  and  _204
REMARK   84  A    between atoms: _203  and  _206
REMARK   85  A    between atoms: _206  and  _207
REMARK   86  A    between atoms: _212  and  _213
REMARK   87  A    between atoms: _215  and  _217
REMARK   88  A    between atoms: _217  and  _218
REMARK   89  A    between atoms: _217  and  _220
REMARK   90  A    between atoms: _220  and  _221
REMARK   91  A    between atoms: _221  and  _222
REMARK   92  A    between atoms: _224  and  _226
REMARK   93  A    between atoms: _226  and  _227
REMARK   94  A    between atoms: _226  and  _229
REMARK   95  A    between atoms: _229  and  _230
REMARK   96  A    between atoms: _230  and  _231
REMARK   97  A    between atoms: _231  and  _232
REMARK   98  A    between atoms: _232  and  _233
REMARK   99  A    between atoms: _237  and  _239
REMARK  100  A    between atoms: _239  and  _240
REMARK  101  A    between atoms: _239  and  _242
REMARK  102  A    between atoms: _242  and  _243
REMARK  103  A    between atoms: _248  and  _250
REMARK  104  A    between atoms: _250  and  _251
REMARK  105  A    between atoms: _253  and  _255
REMARK  106  A    between atoms: _255  and  _256
REMARK  107  A    between atoms: _255  and  _258
REMARK  108  A    between atoms: _258  and  _259
REMARK  109  A    between atoms: _262  and  _264
REMARK  110  A    between atoms: _264  and  _265
REMARK  111  A    between atoms: _264  and  _267
REMARK  112  A    between atoms: _267  and  _268
REMARK  113  A    between atoms: _271  and  _273
REMARK  114  A    between atoms: _273  and  _274
REMARK  115  A    between atoms: _273  and  _276
REMARK  116  A    between atoms: _276  and  _277
REMARK  117  A    between atoms: _277  and  _278
REMARK  118  A    between atoms: _278  and  _279
REMARK  119  A    between atoms: _288  and  _290
REMARK  120  A    between atoms: _290  and  _291
REMARK  121  A    between atoms: _290  and  _293
REMARK  122  A    between atoms: _293  and  _294
REMARK  123  A    between atoms: _299  and  _301
REMARK  124  A    between atoms: _301  and  _302
REMARK  125  A    between atoms: _301  and  _304
REMARK  126  A    between atoms: _304  and  _305
REMARK  127  A    between atoms: _311  and  _313
REMARK  128  A    between atoms: _313  and  _314
REMARK  129  A    between atoms: _313  and  _316
REMARK  130  A    between atoms: _316  and  _317
REMARK  131  A    between atoms: _317  and  _318
REMARK  132  A    between atoms: _318  and  _319
REMARK  133  A    between atoms: _328  and  _330
REMARK  134  A    between atoms: _330  and  _331
REMARK  135  A    between atoms: _330  and  _333
REMARK  136  A    between atoms: _333  and  _334
REMARK  137  A    between atoms: _339  and  _341
REMARK  138  A    between atoms: _341  and  _342
REMARK  139  A    between atoms: _341  and  _344
REMARK  140  A    between atoms: _344  and  _345
REMARK  141  A    between atoms: _348  and  _350
REMARK  142  A    between atoms: _350  and  _351
REMARK  143  A    between atoms: _354  and  _356
REMARK  144  A    between atoms: _356  and  _357
REMARK  145  A    between atoms: _360  and  _362
REMARK  146  A    between atoms: _362  and  _363
REMARK  147  A    between atoms: _362  and  _365
REMARK  148  A    between atoms: _365  and  _366
REMARK  149  A    between atoms: _366  and  _367
REMARK  150  A    between atoms: _367  and  _368
REMARK  151  A    between atoms: _377  and  _379
REMARK  152  A    between atoms: _379  and  _380
REMARK  153  A    between atoms: _379  and  _382
REMARK  154  A    between atoms: _382  and  _383
REMARK  155  A    between atoms: _388  and  _390
REMARK  156  A    between atoms: _390  and  _391
REMARK  157  A    between atoms: _390  and  _393
REMARK  158  A    between atoms: _395  and  _397
REMARK  159  A    between atoms: _397  and  _398
REMARK  160  A    between atoms: _397  and  _400
REMARK  161  A    between atoms: _400  and  _401
REMARK  162  A    between atoms: _401  and  _402
REMARK  163  A    between atoms: _404  and  _406
REMARK  164  A    between atoms: _406  and  _407
REMARK  165  A    between atoms: _406  and  _409
REMARK  166  A    between atoms: _409  and  _410
REMARK  167  A    between atoms: _413  and  _415
REMARK  168  A    between atoms: _415  and  _416
REMARK  169  A    between atoms: _415  and  _418
REMARK  170  A    between atoms: _418  and  _419
REMARK  171  A    between atoms: _422  and  _424
REMARK  172  A    between atoms: _424  and  _425
REMARK  173  A    between atoms: _424  and  _427
REMARK  174  A    between atoms: _427  and  _428
REMARK  175  A    between atoms: _428  and  _429
REMARK  176  A    between atoms: _429  and  _430
REMARK  177  A    between atoms: _430  and  _431
REMARK  178  A    between atoms: _435  and  _437
REMARK  179  A    between atoms: _437  and  _438
REMARK  180  A    between atoms: _437  and  _440
REMARK  181  A    between atoms: _443  and  _445
REMARK  182  A    between atoms: _445  and  _446
REMARK  183  A    between atoms: _449  and  _451
REMARK  184  A    between atoms: _451  and  _452
REMARK  185  A    between atoms: _451  and  _454
REMARK  186  A    between atoms: _454  and  _455
REMARK  187  A    between atoms: _458  and  _460
REMARK  188  A    between atoms: _460  and  _461
REMARK  189  A    between atoms: _460  and  _463
REMARK  190  A    between atoms: _463  and  _464
REMARK  191  A    between atoms: _470  and  _472
REMARK  192  A    between atoms: _472  and  _473
REMARK  193  A    between atoms: _472  and  _475
REMARK  194  A    between atoms: _475  and  _476
REMARK  195  A    between atoms: _479  and  _481
REMARK  196  A    between atoms: _481  and  _482
REMARK  197  A    between atoms: _485  and  _487
REMARK  198  A    between atoms: _487  and  _488
REMARK  199  A    between atoms: _487  and  _490
REMARK  200  A    between atoms: _490  and  _491
REMARK  201  A    between atoms: _491  and  _492
REMARK  202  A    between atoms: _492  and  _493
REMARK  203  A    between atoms: _502  and  _504
REMARK  204  A    between atoms: _504  and  _505
REMARK  205  A    between atoms: _504  and  _507
REMARK  206  A    between atoms: _507  and  _508
REMARK  207  A    between atoms: _511  and  _513
REMARK  208  A    between atoms: _513  and  _514
REMARK  209  A    between atoms: _513  and  _516
REMARK  210  A    between atoms: _516  and  _517
REMARK  211  A    between atoms: _517  and  _518
REMARK  212  A    between atoms: _520  and  _522
REMARK  213  A    between atoms: _522  and  _523
REMARK  214  A    between atoms: _522  and  _525
REMARK  215  A    between atoms: _525  and  _526
REMARK  216  A    between atoms: _531  and  _532
REMARK  217  A    between atoms: _534  and  _536
REMARK  218  A    between atoms: _536  and  _537
REMARK  219  A    between atoms: _536  and  _539
REMARK  220  A    between atoms: _539  and  _540
REMARK  221  A    between atoms: _543  and  _545
REMARK  222  A    between atoms: _545  and  _546
REMARK  223  A    between atoms: _545  and  _548
REMARK  224  A    between atoms: _548  and  _549
REMARK  225  A    between atoms: _549  and  _550
REMARK  226  A    between atoms: _550  and  _551
REMARK  227  A    between atoms: _551  and  _552
REMARK  228  A    between atoms: _556  and  _558
REMARK  229  A    between atoms: _558  and  _559
REMARK  230  A    between atoms: _558  and  _561
REMARK  231  A    between atoms: _561  and  _562
REMARK  232  A    between atoms: _562  and  _563
REMARK  233  A    between atoms: _566  and  _568
REMARK  234  A    between atoms: _568  and  _569
REMARK  235  A    between atoms: _568  and  _571
REMARK  236  A    between atoms: _571  and  _572
REMARK  237  A    between atoms: _577  and  _578
REMARK  238  A    between atoms: _580  and  _582
REMARK  239  A    between atoms: _582  and  _583
REMARK  240  A    between atoms: _582  and  _585
REMARK  241  A    between atoms: _585  and  _586
REMARK  242  A    between atoms: _591  and  _592
REMARK                            x       y       z     vdW  Elec       q    Type
REMARK                         _______ _______ _______ _____ _____    ______ ____
ROOT
ATOM      1  O   HOH     1      16.551  83.657  -0.586  0.00  0.00    +0.000 OA
ENDROOT
TORSDOF 0
REMARK  Name = ../refined-set-2016/3zxz/3zxz_pocket.pdb
REMARK  242 active torsions:
REMARK  status: ('A' for Active; 'I' for Inactive)
REMARK    1  A    between atoms: _1  and  _3
REMARK    2  A    between atoms: _3  and  _4
REMARK    3  A    between atoms: _3  and  _6
REMARK    4  A    between atoms: _9  and  _11
REMARK    5  A    between atoms: _11  and  _12
REMARK    6  A    between atoms: _11  and  _14
REMARK    7  A    between atoms: _14  and  _15
REMARK    8  A    between atoms: _18  and  _20
REMARK    9  A    between atoms: _20  and  _21
REMARK   10  A    between atoms: _23  and  _25
REMARK   11  A    between atoms: _25  and  _26
REMARK   12  A    between atoms: _25  and  _28
REMARK   13  A    between atoms: _28  and  _29
REMARK   14  A    between atoms: _29  and  _30
REMARK   15  A    between atoms: _30  and  _31
REMARK   16  A    between atoms: _40  and  _42
REMARK   17  A    between atoms: _42  and  _43
REMARK   18  A    between atoms: _45  and  _47
REMARK   19  A    between atoms: _47  and  _48
REMARK   20  A    between atoms: _47  and  _50
REMARK   21  A    between atoms: _52  and  _54
REMARK   22  A    between atoms: _54  and  _55
REMARK   23  A    between atoms: _54  and  _57
REMARK   24  A    between atoms: _60  and  _62
REMARK   25  A    between atoms: _62  and  _63
REMARK   26  A    between atoms: _62  and  _65
REMARK   27  A    between atoms: _65  and  _66
REMARK   28  A    between atoms: _71  and  _72
REMARK   29  A    between atoms: _74  and  _76
REMARK   30  A    between atoms: _76  and  _77
REMARK   31  A    between atoms: _76  and  _79
REMARK   32  A    between atoms: _79  and  _80
REMARK   33  A    between atoms: _85  and  _87
REMARK   34  A    between atoms: _87  and  _88
REMARK   35  A    between atoms: _90  and  _92
REMARK   36  A    between atoms: _92  and  _93
REMARK   37  A    between atoms: _92  and  _95
REMARK   38  A    between atoms: _95  and  _96
REMARK   39  A    between atoms: _101  and  _103
REMARK   40  A    between atoms: _103  and  _104
REMARK   41  A    between atoms: _103  and  _106
REMARK   42  A    between atoms: _108  and  _110
REMARK   43  A    between atoms: _110  and  _111
REMARK   44  A    between atoms: _114  and  _116
REMARK   45  A    between atoms: _116  and  _117
REMARK   46  A    between atoms: _116  and  _119
REMARK   47  A    between atoms: _122  and  _124
REMARK   48  A    between atoms: _124  and  _125
REMARK   49  A    between atoms: _124  and  _127
REMARK   50  A    between atoms: _127  and  _128
REMARK   51  A    between atoms: _128  and  _129
REMARK   52  A    between atoms: _129  and  _130
REMARK   53  A    between atoms: _130  and  _131
REMARK   54  A    between atoms: _135  and  _137
REMARK   55  A    between atoms: _137  and  _138
REMARK   56  A    between atoms: _137  and  _140
REMARK   57  A    between atoms: _140  and  _141
REMARK   58  A    between atoms: _143  and  _145
REMARK   59  A    between atoms: _145  and  _146
REMARK   60  A    between atoms: _145  and  _148
REMARK   61  A    between atoms: _148  and  _149
REMARK   62  A    between atoms: _149  and  _150
REMARK   63  A    between atoms: _152  and  _154
REMARK   64  A    between atoms: _154  and  _155
REMARK   65  A    between atoms: _154  and  _157
REMARK   66  A    between atoms: _157  and  _158
REMARK   67  A    between atoms: _161  and  _163
REMARK   68  A    between atoms: _163  and  _164
REMARK   69  A    between atoms: _163  and  _166
REMARK   70  A    between atoms: _166  and  _167
REMARK   71  A    between atoms: _169  and  _171
REMARK   72  A    between atoms: _171  and  _172
REMARK   73  A    between atoms: _171  and  _174
REMARK   74  A    between atoms: _177  and  _179
REMARK   75  A    between atoms: _179  and  _180
REMARK   76  A    between atoms: _179  and  _182
REMARK   77  A    between atoms: _185  and  _187
REMARK   78  A    between atoms: _187  and  _188
REMARK   79  A    between atoms: _187  and  _190
REMARK   80  A    between atoms: _190  and  _191
REMARK   81  A    between atoms: _195  and  _196
REMARK   82  A    between atoms: _201  and  _203
REMARK   83  A    between atoms: _203  and  _204
REMARK   84  A    between atoms: _203  and  _206
REMARK   85  A    between atoms: _206  and  _207
REMARK   86  A    between atoms: _212  and  _213
REMARK   87  A    between atoms: _215  and  _217
REMARK   88  A    between atoms: _217  and  _218
REMARK   89  A    between atoms: _217  and  _220
REMARK   90  A    between atoms: _220  and  _221
REMARK   91  A    between atoms: _221  and  _222
REMARK   92  A    between atoms: _224  and  _226
REMARK   93  A    between atoms: _226  and  _227
REMARK   94  A    between atoms: _226  and  _229
REMARK   95  A    between atoms: _229  and  _230
REMARK   96  A    between atoms: _230  and  _231
REMARK   97  A    between atoms: _231  and  _232
REMARK   98  A    between atoms: _232  and  _233
REMARK   99  A    between atoms: _237  and  _239
REMARK  100  A    between atoms: _239  and  _240
REMARK  101  A    between atoms: _239  and  _242
REMARK  102  A    between atoms: _242  and  _243
REMARK  103  A    between atoms: _248  and  _250
REMARK  104  A    between atoms: _250  and  _251
REMARK  105  A    between atoms: _253  and  _255
REMARK  106  A    between atoms: _255  and  _256
REMARK  107  A    between atoms: _255  and  _258
REMARK  108  A    between atoms: _258  and  _259
REMARK  109  A    between atoms: _262  and  _264
REMARK  110  A    between atoms: _264  and  _265
REMARK  111  A    between atoms: _264  and  _267
REMARK  112  A    between atoms: _267  and  _268
REMARK  113  A    between atoms: _271  and  _273
REMARK  114  A    between atoms: _273  and  _274
REMARK  115  A    between atoms: _273  and  _276
REMARK  116  A    between atoms: _276  and  _277
REMARK  117  A    between atoms: _277  and  _278
REMARK  118  A    between atoms: _278  and  _279
REMARK  119  A    between atoms: _288  and  _290
REMARK  120  A    between atoms: _290  and  _291
REMARK  121  A    between atoms: _290  and  _293
REMARK  122  A    between atoms: _293  and  _294
REMARK  123  A    between atoms: _299  and  _301
REMARK  124  A    between atoms: _301  and  _302
REMARK  125  A    between atoms: _301  and  _304
REMARK  126  A    between atoms: _304  and  _305
REMARK  127  A    between atoms: _311  and  _313
REMARK  128  A    between atoms: _313  and  _314
REMARK  129  A    between atoms: _313  and  _316
REMARK  130  A    between atoms: _316  and  _317
REMARK  131  A    between atoms: _317  and  _318
REMARK  132  A    between atoms: _318  and  _319
REMARK  133  A    between atoms: _328  and  _330
REMARK  134  A    between atoms: _330  and  _331
REMARK  135  A    between atoms: _330  and  _333
REMARK  136  A    between atoms: _333  and  _334
REMARK  137  A    between atoms: _339  and  _341
REMARK  138  A    between atoms: _341  and  _342
REMARK  139  A    between atoms: _341  and  _344
REMARK  140  A    between atoms: _344  and  _345
REMARK  141  A    between atoms: _348  and  _350
REMARK  142  A    between atoms: _350  and  _351
REMARK  143  A    between atoms: _354  and  _356
REMARK  144  A    between atoms: _356  and  _357
REMARK  145  A    between atoms: _360  and  _362
REMARK  146  A    between atoms: _362  and  _363
REMARK  147  A    between atoms: _362  and  _365
REMARK  148  A    between atoms: _365  and  _366
REMARK  149  A    between atoms: _366  and  _367
REMARK  150  A    between atoms: _367  and  _368
REMARK  151  A    between atoms: _377  and  _379
REMARK  152  A    between atoms: _379  and  _380
REMARK  153  A    between atoms: _379  and  _382
REMARK  154  A    between atoms: _382  and  _383
REMARK  155  A    between atoms: _388  and  _390
REMARK  156  A    between atoms: _390  and  _391
REMARK  157  A    between atoms: _390  and  _393
REMARK  158  A    between atoms: _395  and  _397
REMARK  159  A    between atoms: _397  and  _398
REMARK  160  A    between atoms: _397  and  _400
REMARK  161  A    between atoms: _400  and  _401
REMARK  162  A    between atoms: _401  and  _402
REMARK  163  A    between atoms: _404  and  _406
REMARK  164  A    between atoms: _406  and  _407
REMARK  165  A    between atoms: _406  and  _409
REMARK  166  A    between atoms: _409  and  _410
REMARK  167  A    between atoms: _413  and  _415
REMARK  168  A    between atoms: _415  and  _416
REMARK  169  A    between atoms: _415  and  _418
REMARK  170  A    between atoms: _418  and  _419
REMARK  171  A    between atoms: _422  and  _424
REMARK  172  A    between atoms: _424  and  _425
REMARK  173  A    between atoms: _424  and  _427
REMARK  174  A    between atoms: _427  and  _428
REMARK  175  A    between atoms: _428  and  _429
REMARK  176  A    between atoms: _429  and  _430
REMARK  177  A    between atoms: _430  and  _431
REMARK  178  A    between atoms: _435  and  _437
REMARK  179  A    between atoms: _437  and  _438
REMARK  180  A    between atoms: _437  and  _440
REMARK  181  A    between atoms: _443  and  _445
REMARK  182  A    between atoms: _445  and  _446
REMARK  183  A    between atoms: _449  and  _451
REMARK  184  A    between atoms: _451  and  _452
REMARK  185  A    between atoms: _451  and  _454
REMARK  186  A    between atoms: _454  and  _455
REMARK  187  A    between atoms: _458  and  _460
REMARK  188  A    between atoms: _460  and  _461
REMARK  189  A    between atoms: _460  and  _463
REMARK  190  A    between atoms: _463  and  _464
REMARK  191  A    between atoms: _470  and  _472
REMARK  192  A    between atoms: _472  and  _473
REMARK  193  A    between atoms: _472  and  _475
REMARK  194  A    between atoms: _475  and  _476
REMARK  195  A    between atoms: _479  and  _481
REMARK  196  A    between atoms: _481  and  _482
REMARK  197  A    between atoms: _485  and  _487
REMARK  198  A    between atoms: _487  and  _488
REMARK  199  A    between atoms: _487  and  _490
REMARK  200  A    between atoms: _490  and  _491
REMARK  201  A    between atoms: _491  and  _492
REMARK  202  A    between atoms: _492  and  _493
REMARK  203  A    between atoms: _502  and  _504
REMARK  204  A    between atoms: _504  and  _505
REMARK  205  A    between atoms: _504  and  _507
REMARK  206  A    between atoms: _507  and  _508
REMARK  207  A    between atoms: _511  and  _513
REMARK  208  A    between atoms: _513  and  _514
REMARK  209  A    between atoms: _513  and  _516
REMARK  210  A    between atoms: _516  and  _517
REMARK  211  A    between atoms: _517  and  _518
REMARK  212  A    between atoms: _520  and  _522
REMARK  213  A    between atoms: _522  and  _523
REMARK  214  A    between atoms: _522  and  _525
REMARK  215  A    between atoms: _525  and  _526
REMARK  216  A    between atoms: _531  and  _532
REMARK  217  A    between atoms: _534  and  _536
REMARK  218  A    between atoms: _536  and  _537
REMARK  219  A    between atoms: _536  and  _539
REMARK  220  A    between atoms: _539  and  _540
REMARK  221  A    between atoms: _543  and  _545
REMARK  222  A    between atoms: _545  and  _546
REMARK  223  A    between atoms: _545  and  _548
REMARK  224  A    between atoms: _548  and  _549
REMARK  225  A    between atoms: _549  and  _550
REMARK  226  A    between atoms: _550  and  _551
REMARK  227  A    between atoms: _551  and  _552
REMARK  228  A    between atoms: _556  and  _558
REMARK  229  A    between atoms: _558  and  _559
REMARK  230  A    between atoms: _558  and  _561
REMARK  231  A    between atoms: _561  and  _562
REMARK  232  A    between atoms: _562  and  _563
REMARK  233  A    between atoms: _566  and  _568
REMARK  234  A    between atoms: _568  and  _569
REMARK  235  A    between atoms: _568  and  _571
REMARK  236  A    between atoms: _571  and  _572
REMARK  237  A    between atoms: _577  and  _578
REMARK  238  A    between atoms: _580  and  _582
REMARK  239  A    between atoms: _582  and  _583
REMARK  240  A    between atoms: _582  and  _585
REMARK  241  A    between atoms: _585  and  _586
REMARK  242  A    between atoms: _591  and  _592
REMARK                            x       y       z     vdW  Elec       q    Type
REMARK                         _______ _______ _______ _____ _____    ______ ____
ROOT
ATOM      1  O   HOH     1      28.083  89.971   0.453  0.00  0.00    +0.000 OA
ENDROOT
TORSDOF 0
REMARK  Name = ../refined-set-2016/3zxz/3zxz_pocket.pdb
REMARK  242 active torsions:
REMARK  status: ('A' for Active; 'I' for Inactive)
REMARK    1  A    between atoms: _1  and  _3
REMARK    2  A    between atoms: _3  and  _4
REMARK    3  A    between atoms: _3  and  _6
REMARK    4  A    between atoms: _9  and  _11
REMARK    5  A    between atoms: _11  and  _12
REMARK    6  A    between atoms: _11  and  _14
REMARK    7  A    between atoms: _14  and  _15
REMARK    8  A    between atoms: _18  and  _20
REMARK    9  A    between atoms: _20  and  _21
REMARK   10  A    between atoms: _23  and  _25
REMARK   11  A    between atoms: _25  and  _26
REMARK   12  A    between atoms: _25  and  _28
REMARK   13  A    between atoms: _28  and  _29
REMARK   14  A    between atoms: _29  and  _30
REMARK   15  A    between atoms: _30  and  _31
REMARK   16  A    between atoms: _40  and  _42
REMARK   17  A    between atoms: _42  and  _43
REMARK   18  A    between atoms: _45  and  _47
REMARK   19  A    between atoms: _47  and  _48
REMARK   20  A    between atoms: _47  and  _50
REMARK   21  A    between atoms: _52  and  _54
REMARK   22  A    between atoms: _54  and  _55
REMARK   23  A    between atoms: _54  and  _57
REMARK   24  A    between atoms: _60  and  _62
REMARK   25  A    between atoms: _62  and  _63
REMARK   26  A    between atoms: _62  and  _65
REMARK   27  A    between atoms: _65  and  _66
REMARK   28  A    between atoms: _71  and  _72
REMARK   29  A    between atoms: _74  and  _76
REMARK   30  A    between atoms: _76  and  _77
REMARK   31  A    between atoms: _76  and  _79
REMARK   32  A    between atoms: _79  and  _80
REMARK   33  A    between atoms: _85  and  _87
REMARK   34  A    between atoms: _87  and  _88
REMARK   35  A    between atoms: _90  and  _92
REMARK   36  A    between atoms: _92  and  _93
REMARK   37  A    between atoms: _92  and  _95
REMARK   38  A    between atoms: _95  and  _96
REMARK   39  A    between atoms: _101  and  _103
REMARK   40  A    between atoms: _103  and  _104
REMARK   41  A    between atoms: _103  and  _106
REMARK   42  A    between atoms: _108  and  _110
REMARK   43  A    between atoms: _110  and  _111
REMARK   44  A    between atoms: _114  and  _116
REMARK   45  A    between atoms: _116  and  _117
REMARK   46  A    between atoms: _116  and  _119
REMARK   47  A    between atoms: _122  and  _124
REMARK   48  A    between atoms: _124  and  _125
REMARK   49  A    between atoms: _124  and  _127
REMARK   50  A    between atoms: _127  and  _128
REMARK   51  A    between atoms: _128  and  _129
REMARK   52  A    between atoms: _129  and  _130
REMARK   53  A    between atoms: _130  and  _131
REMARK   54  A    between atoms: _135  and  _137
REMARK   55  A    between atoms: _137  and  _138
REMARK   56  A    between atoms: _137  and  _140
REMARK   57  A    between atoms: _140  and  _141
REMARK   58  A    between atoms: _143  and  _145
REMARK   59  A    between atoms: _145  and  _146
REMARK   60  A    between atoms: _145  and  _148
REMARK   61  A    between atoms: _148  and  _149
REMARK   62  A    between atoms: _149  and  _150
REMARK   63  A    between atoms: _152  and  _154
REMARK   64  A    between atoms: _154  and  _155
REMARK   65  A    between atoms: _154  and  _157
REMARK   66  A    between atoms: _157  and  _158
REMARK   67  A    between atoms: _161  and  _163
REMARK   68  A    between atoms: _163  and  _164
REMARK   69  A    between atoms: _163  and  _166
REMARK   70  A    between atoms: _166  and  _167
REMARK   71  A    between atoms: _169  and  _171
REMARK   72  A    between atoms: _171  and  _172
REMARK   73  A    between atoms: _171  and  _174
REMARK   74  A    between atoms: _177  and  _179
REMARK   75  A    between atoms: _179  and  _180
REMARK   76  A    between atoms: _179  and  _182
REMARK   77  A    between atoms: _185  and  _187
REMARK   78  A    between atoms: _187  and  _188
REMARK   79  A    between atoms: _187  and  _190
REMARK   80  A    between atoms: _190  and  _191
REMARK   81  A    between atoms: _195  and  _196
REMARK   82  A    between atoms: _201  and  _203
REMARK   83  A    between atoms: _203  and  _204
REMARK   84  A    between atoms: _203  and  _206
REMARK   85  A    between atoms: _206  and  _207
REMARK   86  A    between atoms: _212  and  _213
REMARK   87  A    between atoms: _215  and  _217
REMARK   88  A    between atoms: _217  and  _218
REMARK   89  A    between atoms: _217  and  _220
REMARK   90  A    between atoms: _220  and  _221
REMARK   91  A    between atoms: _221  and  _222
REMARK   92  A    between atoms: _224  and  _226
REMARK   93  A    between atoms: _226  and  _227
REMARK   94  A    between atoms: _226  and  _229
REMARK   95  A    between atoms: _229  and  _230
REMARK   96  A    between atoms: _230  and  _231
REMARK   97  A    between atoms: _231  and  _232
REMARK   98  A    between atoms: _232  and  _233
REMARK   99  A    between atoms: _237  and  _239
REMARK  100  A    between atoms: _239  and  _240
REMARK  101  A    between atoms: _239  and  _242
REMARK  102  A    between atoms: _242  and  _243
REMARK  103  A    between atoms: _248  and  _250
REMARK  104  A    between atoms: _250  and  _251
REMARK  105  A    between atoms: _253  and  _255
REMARK  106  A    between atoms: _255  and  _256
REMARK  107  A    between atoms: _255  and  _258
REMARK  108  A    between atoms: _258  and  _259
REMARK  109  A    between atoms: _262  and  _264
REMARK  110  A    between atoms: _264  and  _265
REMARK  111  A    between atoms: _264  and  _267
REMARK  112  A    between atoms: _267  and  _268
REMARK  113  A    between atoms: _271  and  _273
REMARK  114  A    between atoms: _273  and  _274
REMARK  115  A    between atoms: _273  and  _276
REMARK  116  A    between atoms: _276  and  _277
REMARK  117  A    between atoms: _277  and  _278
REMARK  118  A    between atoms: _278  and  _279
REMARK  119  A    between atoms: _288  and  _290
REMARK  120  A    between atoms: _290  and  _291
REMARK  121  A    between atoms: _290  and  _293
REMARK  122  A    between atoms: _293  and  _294
REMARK  123  A    between atoms: _299  and  _301
REMARK  124  A    between atoms: _301  and  _302
REMARK  125  A    between atoms: _301  and  _304
REMARK  126  A    between atoms: _304  and  _305
REMARK  127  A    between atoms: _311  and  _313
REMARK  128  A    between atoms: _313  and  _314
REMARK  129  A    between atoms: _313  and  _316
REMARK  130  A    between atoms: _316  and  _317
REMARK  131  A    between atoms: _317  and  _318
REMARK  132  A    between atoms: _318  and  _319
REMARK  133  A    between atoms: _328  and  _330
REMARK  134  A    between atoms: _330  and  _331
REMARK  135  A    between atoms: _330  and  _333
REMARK  136  A    between atoms: _333  and  _334
REMARK  137  A    between atoms: _339  and  _341
REMARK  138  A    between atoms: _341  and  _342
REMARK  139  A    between atoms: _341  and  _344
REMARK  140  A    between atoms: _344  and  _345
REMARK  141  A    between atoms: _348  and  _350
REMARK  142  A    between atoms: _350  and  _351
REMARK  143  A    between atoms: _354  and  _356
REMARK  144  A    between atoms: _356  and  _357
REMARK  145  A    between atoms: _360  and  _362
REMARK  146  A    between atoms: _362  and  _363
REMARK  147  A    between atoms: _362  and  _365
REMARK  148  A    between atoms: _365  and  _366
REMARK  149  A    between atoms: _366  and  _367
REMARK  150  A    between atoms: _367  and  _368
REMARK  151  A    between atoms: _377  and  _379
REMARK  152  A    between atoms: _379  and  _380
REMARK  153  A    between atoms: _379  and  _382
REMARK  154  A    between atoms: _382  and  _383
REMARK  155  A    between atoms: _388  and  _390
REMARK  156  A    between atoms: _390  and  _391
REMARK  157  A    between atoms: _390  and  _393
REMARK  158  A    between atoms: _395  and  _397
REMARK  159  A    between atoms: _397  and  _398
REMARK  160  A    between atoms: _397  and  _400
REMARK  161  A    between atoms: _400  and  _401
REMARK  162  A    between atoms: _401  and  _402
REMARK  163  A    between atoms: _404  and  _406
REMARK  164  A    between atoms: _406  and  _407
REMARK  165  A    between atoms: _406  and  _409
REMARK  166  A    between atoms: _409  and  _410
REMARK  167  A    between atoms: _413  and  _415
REMARK  168  A    between atoms: _415  and  _416
REMARK  169  A    between atoms: _415  and  _418
REMARK  170  A    between atoms: _418  and  _419
REMARK  171  A    between atoms: _422  and  _424
REMARK  172  A    between atoms: _424  and  _425
REMARK  173  A    between atoms: _424  and  _427
REMARK  174  A    between atoms: _427  and  _428
REMARK  175  A    between atoms: _428  and  _429
REMARK  176  A    between atoms: _429  and  _430
REMARK  177  A    between atoms: _430  and  _431
REMARK  178  A    between atoms: _435  and  _437
REMARK  179  A    between atoms: _437  and  _438
REMARK  180  A    between atoms: _437  and  _440
REMARK  181  A    between atoms: _443  and  _445
REMARK  182  A    between atoms: _445  and  _446
REMARK  183  A    between atoms: _449  and  _451
REMARK  184  A    between atoms: _451  and  _452
REMARK  185  A    between atoms: _451  and  _454
REMARK  186  A    between atoms: _454  and  _455
REMARK  187  A    between atoms: _458  and  _460
REMARK  188  A    between atoms: _460  and  _461
REMARK  189  A    between atoms: _460  and  _463
REMARK  190  A    between atoms: _463  and  _464
REMARK  191  A    between atoms: _470  and  _472
REMARK  192  A    between atoms: _472  and  _473
REMARK  193  A    between atoms: _472  and  _475
REMARK  194  A    between atoms: _475  and  _476
REMARK  195  A    between atoms: _479  and  _481
REMARK  196  A    between atoms: _481  and  _482
REMARK  197  A    between atoms: _485  and  _487
REMARK  198  A    between atoms: _487  and  _488
REMARK  199  A    between atoms: _487  and  _490
REMARK  200  A    between atoms: _490  and  _491
REMARK  201  A    between atoms: _491  and  _492
REMARK  202  A    between atoms: _492  and  _493
REMARK  203  A    between atoms: _502  and  _504
REMARK  204  A    between atoms: _504  and  _505
REMARK  205  A    between atoms: _504  and  _507
REMARK  206  A    between atoms: _507  and  _508
REMARK  207  A    between atoms: _511  and  _513
REMARK  208  A    between atoms: _513  and  _514
REMARK  209  A    between atoms: _513  and  _516
REMARK  210  A    between atoms: _516  and  _517
REMARK  211  A    between atoms: _517  and  _518
REMARK  212  A    between atoms: _520  and  _522
REMARK  213  A    between atoms: _522  and  _523
REMARK  214  A    between atoms: _522  and  _525
REMARK  215  A    between atoms: _525  and  _526
REMARK  216  A    between atoms: _531  and  _532
REMARK  217  A    between atoms: _534  and  _536
REMARK  218  A    between atoms: _536  and  _537
REMARK  219  A    between atoms: _536  and  _539
REMARK  220  A    between atoms: _539  and  _540
REMARK  221  A    between atoms: _543  and  _545
REMARK  222  A    between atoms: _545  and  _546
REMARK  223  A    between atoms: _545  and  _548
REMARK  224  A    between atoms: _548  and  _549
REMARK  225  A    between atoms: _549  and  _550
REMARK  226  A    between atoms: _550  and  _551
REMARK  227  A    between atoms: _551  and  _552
REMARK  228  A    between atoms: _556  and  _558
REMARK  229  A    between atoms: _558  and  _559
REMARK  230  A    between atoms: _558  and  _561
REMARK  231  A    between atoms: _561  and  _562
REMARK  232  A    between atoms: _562  and  _563
REMARK  233  A    between atoms: _566  and  _568
REMARK  234  A    between atoms: _568  and  _569
REMARK  235  A    between atoms: _568  and  _571
REMARK  236  A    between atoms: _571  and  _572
REMARK  237  A    between atoms: _577  and  _578
REMARK  238  A    between atoms: _580  and  _582
REMARK  239  A    between atoms: _582  and  _583
REMARK  240  A    between atoms: _582  and  _585
REMARK  241  A    between atoms: _585  and  _586
REMARK  242  A    between atoms: _591  and  _592
REMARK                            x       y       z     vdW  Elec       q    Type
REMARK                         _______ _______ _______ _____ _____    ______ ____
ROOT
ATOM      1  O   HOH     1      13.333  88.967   8.581  0.00  0.00    +0.000 OA
ENDROOT
TORSDOF 0
REMARK  Name = ../refined-set-2016/3zxz/3zxz_pocket.pdb
REMARK  242 active torsions:
REMARK  status: ('A' for Active; 'I' for Inactive)
REMARK    1  A    between atoms: _1  and  _3
REMARK    2  A    between atoms: _3  and  _4
REMARK    3  A    between atoms: _3  and  _6
REMARK    4  A    between atoms: _9  and  _11
REMARK    5  A    between atoms: _11  and  _12
REMARK    6  A    between atoms: _11  and  _14
REMARK    7  A    between atoms: _14  and  _15
REMARK    8  A    between atoms: _18  and  _20
REMARK    9  A    between atoms: _20  and  _21
REMARK   10  A    between atoms: _23  and  _25
REMARK   11  A    between atoms: _25  and  _26
REMARK   12  A    between atoms: _25  and  _28
REMARK   13  A    between atoms: _28  and  _29
REMARK   14  A    between atoms: _29  and  _30
REMARK   15  A    between atoms: _30  and  _31
REMARK   16  A    between atoms: _40  and  _42
REMARK   17  A    between atoms: _42  and  _43
REMARK   18  A    between atoms: _45  and  _47
REMARK   19  A    between atoms: _47  and  _48
REMARK   20  A    between atoms: _47  and  _50
REMARK   21  A    between atoms: _52  and  _54
REMARK   22  A    between atoms: _54  and  _55
REMARK   23  A    between atoms: _54  and  _57
REMARK   24  A    between atoms: _60  and  _62
REMARK   25  A    between atoms: _62  and  _63
REMARK   26  A    between atoms: _62  and  _65
REMARK   27  A    between atoms: _65  and  _66
REMARK   28  A    between atoms: _71  and  _72
REMARK   29  A    between atoms: _74  and  _76
REMARK   30  A    between atoms: _76  and  _77
REMARK   31  A    between atoms: _76  and  _79
REMARK   32  A    between atoms: _79  and  _80
REMARK   33  A    between atoms: _85  and  _87
REMARK   34  A    between atoms: _87  and  _88
REMARK   35  A    between atoms: _90  and  _92
REMARK   36  A    between atoms: _92  and  _93
REMARK   37  A    between atoms: _92  and  _95
REMARK   38  A    between atoms: _95  and  _96
REMARK   39  A    between atoms: _101  and  _103
REMARK   40  A    between atoms: _103  and  _104
REMARK   41  A    between atoms: _103  and  _106
REMARK   42  A    between atoms: _108  and  _110
REMARK   43  A    between atoms: _110  and  _111
REMARK   44  A    between atoms: _114  and  _116
REMARK   45  A    between atoms: _116  and  _117
REMARK   46  A    between atoms: _116  and  _119
REMARK   47  A    between atoms: _122  and  _124
REMARK   48  A    between atoms: _124  and  _125
REMARK   49  A    between atoms: _124  and  _127
REMARK   50  A    between atoms: _127  and  _128
REMARK   51  A    between atoms: _128  and  _129
REMARK   52  A    between atoms: _129  and  _130
REMARK   53  A    between atoms: _130  and  _131
REMARK   54  A    between atoms: _135  and  _137
REMARK   55  A    between atoms: _137  and  _138
REMARK   56  A    between atoms: _137  and  _140
REMARK   57  A    between atoms: _140  and  _141
REMARK   58  A    between atoms: _143  and  _145
REMARK   59  A    between atoms: _145  and  _146
REMARK   60  A    between atoms: _145  and  _148
REMARK   61  A    between atoms: _148  and  _149
REMARK   62  A    between atoms: _149  and  _150
REMARK   63  A    between atoms: _152  and  _154
REMARK   64  A    between atoms: _154  and  _155
REMARK   65  A    between atoms: _154  and  _157
REMARK   66  A    between atoms: _157  and  _158
REMARK   67  A    between atoms: _161  and  _163
REMARK   68  A    between atoms: _163  and  _164
REMARK   69  A    between atoms: _163  and  _166
REMARK   70  A    between atoms: _166  and  _167
REMARK   71  A    between atoms: _169  and  _171
REMARK   72  A    between atoms: _171  and  _172
REMARK   73  A    between atoms: _171  and  _174
REMARK   74  A    between atoms: _177  and  _179
REMARK   75  A    between atoms: _179  and  _180
REMARK   76  A    between atoms: _179  and  _182
REMARK   77  A    between atoms: _185  and  _187
REMARK   78  A    between atoms: _187  and  _188
REMARK   79  A    between atoms: _187  and  _190
REMARK   80  A    between atoms: _190  and  _191
REMARK   81  A    between atoms: _195  and  _196
REMARK   82  A    between atoms: _201  and  _203
REMARK   83  A    between atoms: _203  and  _204
REMARK   84  A    between atoms: _203  and  _206
REMARK   85  A    between atoms: _206  and  _207
REMARK   86  A    between atoms: _212  and  _213
REMARK   87  A    between atoms: _215  and  _217
REMARK   88  A    between atoms: _217  and  _218
REMARK   89  A    between atoms: _217  and  _220
REMARK   90  A    between atoms: _220  and  _221
REMARK   91  A    between atoms: _221  and  _222
REMARK   92  A    between atoms: _224  and  _226
REMARK   93  A    between atoms: _226  and  _227
REMARK   94  A    between atoms: _226  and  _229
REMARK   95  A    between atoms: _229  and  _230
REMARK   96  A    between atoms: _230  and  _231
REMARK   97  A    between atoms: _231  and  _232
REMARK   98  A    between atoms: _232  and  _233
REMARK   99  A    between atoms: _237  and  _239
REMARK  100  A    between atoms: _239  and  _240
REMARK  101  A    between atoms: _239  and  _242
REMARK  102  A    between atoms: _242  and  _243
REMARK  103  A    between atoms: _248  and  _250
REMARK  104  A    between atoms: _250  and  _251
REMARK  105  A    between atoms: _253  and  _255
REMARK  106  A    between atoms: _255  and  _256
REMARK  107  A    between atoms: _255  and  _258
REMARK  108  A    between atoms: _258  and  _259
REMARK  109  A    between atoms: _262  and  _264
REMARK  110  A    between atoms: _264  and  _265
REMARK  111  A    between atoms: _264  and  _267
REMARK  112  A    between atoms: _267  and  _268
REMARK  113  A    between atoms: _271  and  _273
REMARK  114  A    between atoms: _273  and  _274
REMARK  115  A    between atoms: _273  and  _276
REMARK  116  A    between atoms: _276  and  _277
REMARK  117  A    between atoms: _277  and  _278
REMARK  118  A    between atoms: _278  and  _279
REMARK  119  A    between atoms: _288  and  _290
REMARK  120  A    between atoms: _290  and  _291
REMARK  121  A    between atoms: _290  and  _293
REMARK  122  A    between atoms: _293  and  _294
REMARK  123  A    between atoms: _299  and  _301
REMARK  124  A    between atoms: _301  and  _302
REMARK  125  A    between atoms: _301  and  _304
REMARK  126  A    between atoms: _304  and  _305
REMARK  127  A    between atoms: _311  and  _313
REMARK  128  A    between atoms: _313  and  _314
REMARK  129  A    between atoms: _313  and  _316
REMARK  130  A    between atoms: _316  and  _317
REMARK  131  A    between atoms: _317  and  _318
REMARK  132  A    between atoms: _318  and  _319
REMARK  133  A    between atoms: _328  and  _330
REMARK  134  A    between atoms: _330  and  _331
REMARK  135  A    between atoms: _330  and  _333
REMARK  136  A    between atoms: _333  and  _334
REMARK  137  A    between atoms: _339  and  _341
REMARK  138  A    between atoms: _341  and  _342
REMARK  139  A    between atoms: _341  and  _344
REMARK  140  A    between atoms: _344  and  _345
REMARK  141  A    between atoms: _348  and  _350
REMARK  142  A    between atoms: _350  and  _351
REMARK  143  A    between atoms: _354  and  _356
REMARK  144  A    between atoms: _356  and  _357
REMARK  145  A    between atoms: _360  and  _362
REMARK  146  A    between atoms: _362  and  _363
REMARK  147  A    between atoms: _362  and  _365
REMARK  148  A    between atoms: _365  and  _366
REMARK  149  A    between atoms: _366  and  _367
REMARK  150  A    between atoms: _367  and  _368
REMARK  151  A    between atoms: _377  and  _379
REMARK  152  A    between atoms: _379  and  _380
REMARK  153  A    between atoms: _379  and  _382
REMARK  154  A    between atoms: _382  and  _383
REMARK  155  A    between atoms: _388  and  _390
REMARK  156  A    between atoms: _390  and  _391
REMARK  157  A    between atoms: _390  and  _393
REMARK  158  A    between atoms: _395  and  _397
REMARK  159  A    between atoms: _397  and  _398
REMARK  160  A    between atoms: _397  and  _400
REMARK  161  A    between atoms: _400  and  _401
REMARK  162  A    between atoms: _401  and  _402
REMARK  163  A    between atoms: _404  and  _406
REMARK  164  A    between atoms: _406  and  _407
REMARK  165  A    between atoms: _406  and  _409
REMARK  166  A    between atoms: _409  and  _410
REMARK  167  A    between atoms: _413  and  _415
REMARK  168  A    between atoms: _415  and  _416
REMARK  169  A    between atoms: _415  and  _418
REMARK  170  A    between atoms: _418  and  _419
REMARK  171  A    between atoms: _422  and  _424
REMARK  172  A    between atoms: _424  and  _425
REMARK  173  A    between atoms: _424  and  _427
REMARK  174  A    between atoms: _427  and  _428
REMARK  175  A    between atoms: _428  and  _429
REMARK  176  A    between atoms: _429  and  _430
REMARK  177  A    between atoms: _430  and  _431
REMARK  178  A    between atoms: _435  and  _437
REMARK  179  A    between atoms: _437  and  _438
REMARK  180  A    between atoms: _437  and  _440
REMARK  181  A    between atoms: _443  and  _445
REMARK  182  A    between atoms: _445  and  _446
REMARK  183  A    between atoms: _449  and  _451
REMARK  184  A    between atoms: _451  and  _452
REMARK  185  A    between atoms: _451  and  _454
REMARK  186  A    between atoms: _454  and  _455
REMARK  187  A    between atoms: _458  and  _460
REMARK  188  A    between atoms: _460  and  _461
REMARK  189  A    between atoms: _460  and  _463
REMARK  190  A    between atoms: _463  and  _464
REMARK  191  A    between atoms: _470  and  _472
REMARK  192  A    between atoms: _472  and  _473
REMARK  193  A    between atoms: _472  and  _475
REMARK  194  A    between atoms: _475  and  _476
REMARK  195  A    between atoms: _479  and  _481
REMARK  196  A    between atoms: _481  and  _482
REMARK  197  A    between atoms: _485  and  _487
REMARK  198  A    between atoms: _487  and  _488
REMARK  199  A    between atoms: _487  and  _490
REMARK  200  A    between atoms: _490  and  _491
REMARK  201  A    between atoms: _491  and  _492
REMARK  202  A    between atoms: _492  and  _493
REMARK  203  A    between atoms: _502  and  _504
REMARK  204  A    between atoms: _504  and  _505
REMARK  205  A    between atoms: _504  and  _507
REMARK  206  A    between atoms: _507  and  _508
REMARK  207  A    between atoms: _511  and  _513
REMARK  208  A    between atoms: _513  and  _514
REMARK  209  A    between atoms: _513  and  _516
REMARK  210  A    between atoms: _516  and  _517
REMARK  211  A    between atoms: _517  and  _518
REMARK  212  A    between atoms: _520  and  _522
REMARK  213  A    between atoms: _522  and  _523
REMARK  214  A    between atoms: _522  and  _525
REMARK  215  A    between atoms: _525  and  _526
REMARK  216  A    between atoms: _531  and  _532
REMARK  217  A    between atoms: _534  and  _536
REMARK  218  A    between atoms: _536  and  _537
REMARK  219  A    between atoms: _536  and  _539
REMARK  220  A    between atoms: _539  and  _540
REMARK  221  A    between atoms: _543  and  _545
REMARK  222  A    between atoms: _545  and  _546
REMARK  223  A    between atoms: _545  and  _548
REMARK  224  A    between atoms: _548  and  _549
REMARK  225  A    between atoms: _549  and  _550
REMARK  226  A    between atoms: _550  and  _551
REMARK  227  A    between atoms: _551  and  _552
REMARK  228  A    between atoms: _556  and  _558
REMARK  229  A    between atoms: _558  and  _559
REMARK  230  A    between atoms: _558  and  _561
REMARK  231  A    between atoms: _561  and  _562
REMARK  232  A    between atoms: _562  and  _563
REMARK  233  A    between atoms: _566  and  _568
REMARK  234  A    between atoms: _568  and  _569
REMARK  235  A    between atoms: _568  and  _571
REMARK  236  A    between atoms: _571  and  _572
REMARK  237  A    between atoms: _577  and  _578
REMARK  238  A    between atoms: _580  and  _582
REMARK  239  A    between atoms: _582  and  _583
REMARK  240  A    between atoms: _582  and  _585
REMARK  241  A    between atoms: _585  and  _586
REMARK  242  A    between atoms: _591  and  _592
REMARK                            x       y       z     vdW  Elec       q    Type
REMARK                         _______ _______ _______ _____ _____    ______ ____
ROOT
ATOM      1  O   HOH     1      30.819  83.849   7.812  0.00  0.00    +0.000 OA
ENDROOT
TORSDOF 0
REMARK  Name = ../refined-set-2016/3zxz/3zxz_pocket.pdb
REMARK  242 active torsions:
REMARK  status: ('A' for Active; 'I' for Inactive)
REMARK    1  A    between atoms: _1  and  _3
REMARK    2  A    between atoms: _3  and  _4
REMARK    3  A    between atoms: _3  and  _6
REMARK    4  A    between atoms: _9  and  _11
REMARK    5  A    between atoms: _11  and  _12
REMARK    6  A    between atoms: _11  and  _14
REMARK    7  A    between atoms: _14  and  _15
REMARK    8  A    between atoms: _18  and  _20
REMARK    9  A    between atoms: _20  and  _21
REMARK   10  A    between atoms: _23  and  _25
REMARK   11  A    between atoms: _25  and  _26
REMARK   12  A    between atoms: _25  and  _28
REMARK   13  A    between atoms: _28  and  _29
REMARK   14  A    between atoms: _29  and  _30
REMARK   15  A    between atoms: _30  and  _31
REMARK   16  A    between atoms: _40  and  _42
REMARK   17  A    between atoms: _42  and  _43
REMARK   18  A    between atoms: _45  and  _47
REMARK   19  A    between atoms: _47  and  _48
REMARK   20  A    between atoms: _47  and  _50
REMARK   21  A    between atoms: _52  and  _54
REMARK   22  A    between atoms: _54  and  _55
REMARK   23  A    between atoms: _54  and  _57
REMARK   24  A    between atoms: _60  and  _62
REMARK   25  A    between atoms: _62  and  _63
REMARK   26  A    between atoms: _62  and  _65
REMARK   27  A    between atoms: _65  and  _66
REMARK   28  A    between atoms: _71  and  _72
REMARK   29  A    between atoms: _74  and  _76
REMARK   30  A    between atoms: _76  and  _77
REMARK   31  A    between atoms: _76  and  _79
REMARK   32  A    between atoms: _79  and  _80
REMARK   33  A    between atoms: _85  and  _87
REMARK   34  A    between atoms: _87  and  _88
REMARK   35  A    between atoms: _90  and  _92
REMARK   36  A    between atoms: _92  and  _93
REMARK   37  A    between atoms: _92  and  _95
REMARK   38  A    between atoms: _95  and  _96
REMARK   39  A    between atoms: _101  and  _103
REMARK   40  A    between atoms: _103  and  _104
REMARK   41  A    between atoms: _103  and  _106
REMARK   42  A    between atoms: _108  and  _110
REMARK   43  A    between atoms: _110  and  _111
REMARK   44  A    between atoms: _114  and  _116
REMARK   45  A    between atoms: _116  and  _117
REMARK   46  A    between atoms: _116  and  _119
REMARK   47  A    between atoms: _122  and  _124
REMARK   48  A    between atoms: _124  and  _125
REMARK   49  A    between atoms: _124  and  _127
REMARK   50  A    between atoms: _127  and  _128
REMARK   51  A    between atoms: _128  and  _129
REMARK   52  A    between atoms: _129  and  _130
REMARK   53  A    between atoms: _130  and  _131
REMARK   54  A    between atoms: _135  and  _137
REMARK   55  A    between atoms: _137  and  _138
REMARK   56  A    between atoms: _137  and  _140
REMARK   57  A    between atoms: _140  and  _141
REMARK   58  A    between atoms: _143  and  _145
REMARK   59  A    between atoms: _145  and  _146
REMARK   60  A    between atoms: _145  and  _148
REMARK   61  A    between atoms: _148  and  _149
REMARK   62  A    between atoms: _149  and  _150
REMARK   63  A    between atoms: _152  and  _154
REMARK   64  A    between atoms: _154  and  _155
REMARK   65  A    between atoms: _154  and  _157
REMARK   66  A    between atoms: _157  and  _158
REMARK   67  A    between atoms: _161  and  _163
REMARK   68  A    between atoms: _163  and  _164
REMARK   69  A    between atoms: _163  and  _166
REMARK   70  A    between atoms: _166  and  _167
REMARK   71  A    between atoms: _169  and  _171
REMARK   72  A    between atoms: _171  and  _172
REMARK   73  A    between atoms: _171  and  _174
REMARK   74  A    between atoms: _177  and  _179
REMARK   75  A    between atoms: _179  and  _180
REMARK   76  A    between atoms: _179  and  _182
REMARK   77  A    between atoms: _185  and  _187
REMARK   78  A    between atoms: _187  and  _188
REMARK   79  A    between atoms: _187  and  _190
REMARK   80  A    between atoms: _190  and  _191
REMARK   81  A    between atoms: _195  and  _196
REMARK   82  A    between atoms: _201  and  _203
REMARK   83  A    between atoms: _203  and  _204
REMARK   84  A    between atoms: _203  and  _206
REMARK   85  A    between atoms: _206  and  _207
REMARK   86  A    between atoms: _212  and  _213
REMARK   87  A    between atoms: _215  and  _217
REMARK   88  A    between atoms: _217  and  _218
REMARK   89  A    between atoms: _217  and  _220
REMARK   90  A    between atoms: _220  and  _221
REMARK   91  A    between atoms: _221  and  _222
REMARK   92  A    between atoms: _224  and  _226
REMARK   93  A    between atoms: _226  and  _227
REMARK   94  A    between atoms: _226  and  _229
REMARK   95  A    between atoms: _229  and  _230
REMARK   96  A    between atoms: _230  and  _231
REMARK   97  A    between atoms: _231  and  _232
REMARK   98  A    between atoms: _232  and  _233
REMARK   99  A    between atoms: _237  and  _239
REMARK  100  A    between atoms: _239  and  _240
REMARK  101  A    between atoms: _239  and  _242
REMARK  102  A    between atoms: _242  and  _243
REMARK  103  A    between atoms: _248  and  _250
REMARK  104  A    between atoms: _250  and  _251
REMARK  105  A    between atoms: _253  and  _255
REMARK  106  A    between atoms: _255  and  _256
REMARK  107  A    between atoms: _255  and  _258
REMARK  108  A    between atoms: _258  and  _259
REMARK  109  A    between atoms: _262  and  _264
REMARK  110  A    between atoms: _264  and  _265
REMARK  111  A    between atoms: _264  and  _267
REMARK  112  A    between atoms: _267  and  _268
REMARK  113  A    between atoms: _271  and  _273
REMARK  114  A    between atoms: _273  and  _274
REMARK  115  A    between atoms: _273  and  _276
REMARK  116  A    between atoms: _276  and  _277
REMARK  117  A    between atoms: _277  and  _278
REMARK  118  A    between atoms: _278  and  _279
REMARK  119  A    between atoms: _288  and  _290
REMARK  120  A    between atoms: _290  and  _291
REMARK  121  A    between atoms: _290  and  _293
REMARK  122  A    between atoms: _293  and  _294
REMARK  123  A    between atoms: _299  and  _301
REMARK  124  A    between atoms: _301  and  _302
REMARK  125  A    between atoms: _301  and  _304
REMARK  126  A    between atoms: _304  and  _305
REMARK  127  A    between atoms: _311  and  _313
REMARK  128  A    between atoms: _313  and  _314
REMARK  129  A    between atoms: _313  and  _316
REMARK  130  A    between atoms: _316  and  _317
REMARK  131  A    between atoms: _317  and  _318
REMARK  132  A    between atoms: _318  and  _319
REMARK  133  A    between atoms: _328  and  _330
REMARK  134  A    between atoms: _330  and  _331
REMARK  135  A    between atoms: _330  and  _333
REMARK  136  A    between atoms: _333  and  _334
REMARK  137  A    between atoms: _339  and  _341
REMARK  138  A    between atoms: _341  and  _342
REMARK  139  A    between atoms: _341  and  _344
REMARK  140  A    between atoms: _344  and  _345
REMARK  141  A    between atoms: _348  and  _350
REMARK  142  A    between atoms: _350  and  _351
REMARK  143  A    between atoms: _354  and  _356
REMARK  144  A    between atoms: _356  and  _357
REMARK  145  A    between atoms: _360  and  _362
REMARK  146  A    between atoms: _362  and  _363
REMARK  147  A    between atoms: _362  and  _365
REMARK  148  A    between atoms: _365  and  _366
REMARK  149  A    between atoms: _366  and  _367
REMARK  150  A    between atoms: _367  and  _368
REMARK  151  A    between atoms: _377  and  _379
REMARK  152  A    between atoms: _379  and  _380
REMARK  153  A    between atoms: _379  and  _382
REMARK  154  A    between atoms: _382  and  _383
REMARK  155  A    between atoms: _388  and  _390
REMARK  156  A    between atoms: _390  and  _391
REMARK  157  A    between atoms: _390  and  _393
REMARK  158  A    between atoms: _395  and  _397
REMARK  159  A    between atoms: _397  and  _398
REMARK  160  A    between atoms: _397  and  _400
REMARK  161  A    between atoms: _400  and  _401
REMARK  162  A    between atoms: _401  and  _402
REMARK  163  A    between atoms: _404  and  _406
REMARK  164  A    between atoms: _406  and  _407
REMARK  165  A    between atoms: _406  and  _409
REMARK  166  A    between atoms: _409  and  _410
REMARK  167  A    between atoms: _413  and  _415
REMARK  168  A    between atoms: _415  and  _416
REMARK  169  A    between atoms: _415  and  _418
REMARK  170  A    between atoms: _418  and  _419
REMARK  171  A    between atoms: _422  and  _424
REMARK  172  A    between atoms: _424  and  _425
REMARK  173  A    between atoms: _424  and  _427
REMARK  174  A    between atoms: _427  and  _428
REMARK  175  A    between atoms: _428  and  _429
REMARK  176  A    between atoms: _429  and  _430
REMARK  177  A    between atoms: _430  and  _431
REMARK  178  A    between atoms: _435  and  _437
REMARK  179  A    between atoms: _437  and  _438
REMARK  180  A    between atoms: _437  and  _440
REMARK  181  A    between atoms: _443  and  _445
REMARK  182  A    between atoms: _445  and  _446
REMARK  183  A    between atoms: _449  and  _451
REMARK  184  A    between atoms: _451  and  _452
REMARK  185  A    between atoms: _451  and  _454
REMARK  186  A    between atoms: _454  and  _455
REMARK  187  A    between atoms: _458  and  _460
REMARK  188  A    between atoms: _460  and  _461
REMARK  189  A    between atoms: _460  and  _463
REMARK  190  A    between atoms: _463  and  _464
REMARK  191  A    between atoms: _470  and  _472
REMARK  192  A    between atoms: _472  and  _473
REMARK  193  A    between atoms: _472  and  _475
REMARK  194  A    between atoms: _475  and  _476
REMARK  195  A    between atoms: _479  and  _481
REMARK  196  A    between atoms: _481  and  _482
REMARK  197  A    between atoms: _485  and  _487
REMARK  198  A    between atoms: _487  and  _488
REMARK  199  A    between atoms: _487  and  _490
REMARK  200  A    between atoms: _490  and  _491
REMARK  201  A    between atoms: _491  and  _492
REMARK  202  A    between atoms: _492  and  _493
REMARK  203  A    between atoms: _502  and  _504
REMARK  204  A    between atoms: _504  and  _505
REMARK  205  A    between atoms: _504  and  _507
REMARK  206  A    between atoms: _507  and  _508
REMARK  207  A    between atoms: _511  and  _513
REMARK  208  A    between atoms: _513  and  _514
REMARK  209  A    between atoms: _513  and  _516
REMARK  210  A    between atoms: _516  and  _517
REMARK  211  A    between atoms: _517  and  _518
REMARK  212  A    between atoms: _520  and  _522
REMARK  213  A    between atoms: _522  and  _523
REMARK  214  A    between atoms: _522  and  _525
REMARK  215  A    between atoms: _525  and  _526
REMARK  216  A    between atoms: _531  and  _532
REMARK  217  A    between atoms: _534  and  _536
REMARK  218  A    between atoms: _536  and  _537
REMARK  219  A    between atoms: _536  and  _539
REMARK  220  A    between atoms: _539  and  _540
REMARK  221  A    between atoms: _543  and  _545
REMARK  222  A    between atoms: _545  and  _546
REMARK  223  A    between atoms: _545  and  _548
REMARK  224  A    between atoms: _548  and  _549
REMARK  225  A    between atoms: _549  and  _550
REMARK  226  A    between atoms: _550  and  _551
REMARK  227  A    between atoms: _551  and  _552
REMARK  228  A    between atoms: _556  and  _558
REMARK  229  A    between atoms: _558  and  _559
REMARK  230  A    between atoms: _558  and  _561
REMARK  231  A    between atoms: _561  and  _562
REMARK  232  A    between atoms: _562  and  _563
REMARK  233  A    between atoms: _566  and  _568
REMARK  234  A    between atoms: _568  and  _569
REMARK  235  A    between atoms: _568  and  _571
REMARK  236  A    between atoms: _571  and  _572
REMARK  237  A    between atoms: _577  and  _578
REMARK  238  A    between atoms: _580  and  _582
REMARK  239  A    between atoms: _582  and  _583
REMARK  240  A    between atoms: _582  and  _585
REMARK  241  A    between atoms: _585  and  _586
REMARK  242  A    between atoms: _591  and  _592
REMARK                            x       y       z     vdW  Elec       q    Type
REMARK                         _______ _______ _______ _____ _____    ______ ____
ROOT
ATOM      1  O   HOH     1      27.933  87.261  -0.255  0.00  0.00    +0.000 OA
ENDROOT
TORSDOF 0
REMARK  Name = ../refined-set-2016/3zxz/3zxz_pocket.pdb
REMARK  242 active torsions:
REMARK  status: ('A' for Active; 'I' for Inactive)
REMARK    1  A    between atoms: _1  and  _3
REMARK    2  A    between atoms: _3  and  _4
REMARK    3  A    between atoms: _3  and  _6
REMARK    4  A    between atoms: _9  and  _11
REMARK    5  A    between atoms: _11  and  _12
REMARK    6  A    between atoms: _11  and  _14
REMARK    7  A    between atoms: _14  and  _15
REMARK    8  A    between atoms: _18  and  _20
REMARK    9  A    between atoms: _20  and  _21
REMARK   10  A    between atoms: _23  and  _25
REMARK   11  A    between atoms: _25  and  _26
REMARK   12  A    between atoms: _25  and  _28
REMARK   13  A    between atoms: _28  and  _29
REMARK   14  A    between atoms: _29  and  _30
REMARK   15  A    between atoms: _30  and  _31
REMARK   16  A    between atoms: _40  and  _42
REMARK   17  A    between atoms: _42  and  _43
REMARK   18  A    between atoms: _45  and  _47
REMARK   19  A    between atoms: _47  and  _48
REMARK   20  A    between atoms: _47  and  _50
REMARK   21  A    between atoms: _52  and  _54
REMARK   22  A    between atoms: _54  and  _55
REMARK   23  A    between atoms: _54  and  _57
REMARK   24  A    between atoms: _60  and  _62
REMARK   25  A    between atoms: _62  and  _63
REMARK   26  A    between atoms: _62  and  _65
REMARK   27  A    between atoms: _65  and  _66
REMARK   28  A    between atoms: _71  and  _72
REMARK   29  A    between atoms: _74  and  _76
REMARK   30  A    between atoms: _76  and  _77
REMARK   31  A    between atoms: _76  and  _79
REMARK   32  A    between atoms: _79  and  _80
REMARK   33  A    between atoms: _85  and  _87
REMARK   34  A    between atoms: _87  and  _88
REMARK   35  A    between atoms: _90  and  _92
REMARK   36  A    between atoms: _92  and  _93
REMARK   37  A    between atoms: _92  and  _95
REMARK   38  A    between atoms: _95  and  _96
REMARK   39  A    between atoms: _101  and  _103
REMARK   40  A    between atoms: _103  and  _104
REMARK   41  A    between atoms: _103  and  _106
REMARK   42  A    between atoms: _108  and  _110
REMARK   43  A    between atoms: _110  and  _111
REMARK   44  A    between atoms: _114  and  _116
REMARK   45  A    between atoms: _116  and  _117
REMARK   46  A    between atoms: _116  and  _119
REMARK   47  A    between atoms: _122  and  _124
REMARK   48  A    between atoms: _124  and  _125
REMARK   49  A    between atoms: _124  and  _127
REMARK   50  A    between atoms: _127  and  _128
REMARK   51  A    between atoms: _128  and  _129
REMARK   52  A    between atoms: _129  and  _130
REMARK   53  A    between atoms: _130  and  _131
REMARK   54  A    between atoms: _135  and  _137
REMARK   55  A    between atoms: _137  and  _138
REMARK   56  A    between atoms: _137  and  _140
REMARK   57  A    between atoms: _140  and  _141
REMARK   58  A    between atoms: _143  and  _145
REMARK   59  A    between atoms: _145  and  _146
REMARK   60  A    between atoms: _145  and  _148
REMARK   61  A    between atoms: _148  and  _149
REMARK   62  A    between atoms: _149  and  _150
REMARK   63  A    between atoms: _152  and  _154
REMARK   64  A    between atoms: _154  and  _155
REMARK   65  A    between atoms: _154  and  _157
REMARK   66  A    between atoms: _157  and  _158
REMARK   67  A    between atoms: _161  and  _163
REMARK   68  A    between atoms: _163  and  _164
REMARK   69  A    between atoms: _163  and  _166
REMARK   70  A    between atoms: _166  and  _167
REMARK   71  A    between atoms: _169  and  _171
REMARK   72  A    between atoms: _171  and  _172
REMARK   73  A    between atoms: _171  and  _174
REMARK   74  A    between atoms: _177  and  _179
REMARK   75  A    between atoms: _179  and  _180
REMARK   76  A    between atoms: _179  and  _182
REMARK   77  A    between atoms: _185  and  _187
REMARK   78  A    between atoms: _187  and  _188
REMARK   79  A    between atoms: _187  and  _190
REMARK   80  A    between atoms: _190  and  _191
REMARK   81  A    between atoms: _195  and  _196
REMARK   82  A    between atoms: _201  and  _203
REMARK   83  A    between atoms: _203  and  _204
REMARK   84  A    between atoms: _203  and  _206
REMARK   85  A    between atoms: _206  and  _207
REMARK   86  A    between atoms: _212  and  _213
REMARK   87  A    between atoms: _215  and  _217
REMARK   88  A    between atoms: _217  and  _218
REMARK   89  A    between atoms: _217  and  _220
REMARK   90  A    between atoms: _220  and  _221
REMARK   91  A    between atoms: _221  and  _222
REMARK   92  A    between atoms: _224  and  _226
REMARK   93  A    between atoms: _226  and  _227
REMARK   94  A    between atoms: _226  and  _229
REMARK   95  A    between atoms: _229  and  _230
REMARK   96  A    between atoms: _230  and  _231
REMARK   97  A    between atoms: _231  and  _232
REMARK   98  A    between atoms: _232  and  _233
REMARK   99  A    between atoms: _237  and  _239
REMARK  100  A    between atoms: _239  and  _240
REMARK  101  A    between atoms: _239  and  _242
REMARK  102  A    between atoms: _242  and  _243
REMARK  103  A    between atoms: _248  and  _250
REMARK  104  A    between atoms: _250  and  _251
REMARK  105  A    between atoms: _253  and  _255
REMARK  106  A    between atoms: _255  and  _256
REMARK  107  A    between atoms: _255  and  _258
REMARK  108  A    between atoms: _258  and  _259
REMARK  109  A    between atoms: _262  and  _264
REMARK  110  A    between atoms: _264  and  _265
REMARK  111  A    between atoms: _264  and  _267
REMARK  112  A    between atoms: _267  and  _268
REMARK  113  A    between atoms: _271  and  _273
REMARK  114  A    between atoms: _273  and  _274
REMARK  115  A    between atoms: _273  and  _276
REMARK  116  A    between atoms: _276  and  _277
REMARK  117  A    between atoms: _277  and  _278
REMARK  118  A    between atoms: _278  and  _279
REMARK  119  A    between atoms: _288  and  _290
REMARK  120  A    between atoms: _290  and  _291
REMARK  121  A    between atoms: _290  and  _293
REMARK  122  A    between atoms: _293  and  _294
REMARK  123  A    between atoms: _299  and  _301
REMARK  124  A    between atoms: _301  and  _302
REMARK  125  A    between atoms: _301  and  _304
REMARK  126  A    between atoms: _304  and  _305
REMARK  127  A    between atoms: _311  and  _313
REMARK  128  A    between atoms: _313  and  _314
REMARK  129  A    between atoms: _313  and  _316
REMARK  130  A    between atoms: _316  and  _317
REMARK  131  A    between atoms: _317  and  _318
REMARK  132  A    between atoms: _318  and  _319
REMARK  133  A    between atoms: _328  and  _330
REMARK  134  A    between atoms: _330  and  _331
REMARK  135  A    between atoms: _330  and  _333
REMARK  136  A    between atoms: _333  and  _334
REMARK  137  A    between atoms: _339  and  _341
REMARK  138  A    between atoms: _341  and  _342
REMARK  139  A    between atoms: _341  and  _344
REMARK  140  A    between atoms: _344  and  _345
REMARK  141  A    between atoms: _348  and  _350
REMARK  142  A    between atoms: _350  and  _351
REMARK  143  A    between atoms: _354  and  _356
REMARK  144  A    between atoms: _356  and  _357
REMARK  145  A    between atoms: _360  and  _362
REMARK  146  A    between atoms: _362  and  _363
REMARK  147  A    between atoms: _362  and  _365
REMARK  148  A    between atoms: _365  and  _366
REMARK  149  A    between atoms: _366  and  _367
REMARK  150  A    between atoms: _367  and  _368
REMARK  151  A    between atoms: _377  and  _379
REMARK  152  A    between atoms: _379  and  _380
REMARK  153  A    between atoms: _379  and  _382
REMARK  154  A    between atoms: _382  and  _383
REMARK  155  A    between atoms: _388  and  _390
REMARK  156  A    between atoms: _390  and  _391
REMARK  157  A    between atoms: _390  and  _393
REMARK  158  A    between atoms: _395  and  _397
REMARK  159  A    between atoms: _397  and  _398
REMARK  160  A    between atoms: _397  and  _400
REMARK  161  A    between atoms: _400  and  _401
REMARK  162  A    between atoms: _401  and  _402
REMARK  163  A    between atoms: _404  and  _406
REMARK  164  A    between atoms: _406  and  _407
REMARK  165  A    between atoms: _406  and  _409
REMARK  166  A    between atoms: _409  and  _410
REMARK  167  A    between atoms: _413  and  _415
REMARK  168  A    between atoms: _415  and  _416
REMARK  169  A    between atoms: _415  and  _418
REMARK  170  A    between atoms: _418  and  _419
REMARK  171  A    between atoms: _422  and  _424
REMARK  172  A    between atoms: _424  and  _425
REMARK  173  A    between atoms: _424  and  _427
REMARK  174  A    between atoms: _427  and  _428
REMARK  175  A    between atoms: _428  and  _429
REMARK  176  A    between atoms: _429  and  _430
REMARK  177  A    between atoms: _430  and  _431
REMARK  178  A    between atoms: _435  and  _437
REMARK  179  A    between atoms: _437  and  _438
REMARK  180  A    between atoms: _437  and  _440
REMARK  181  A    between atoms: _443  and  _445
REMARK  182  A    between atoms: _445  and  _446
REMARK  183  A    between atoms: _449  and  _451
REMARK  184  A    between atoms: _451  and  _452
REMARK  185  A    between atoms: _451  and  _454
REMARK  186  A    between atoms: _454  and  _455
REMARK  187  A    between atoms: _458  and  _460
REMARK  188  A    between atoms: _460  and  _461
REMARK  189  A    between atoms: _460  and  _463
REMARK  190  A    between atoms: _463  and  _464
REMARK  191  A    between atoms: _470  and  _472
REMARK  192  A    between atoms: _472  and  _473
REMARK  193  A    between atoms: _472  and  _475
REMARK  194  A    between atoms: _475  and  _476
REMARK  195  A    between atoms: _479  and  _481
REMARK  196  A    between atoms: _481  and  _482
REMARK  197  A    between atoms: _485  and  _487
REMARK  198  A    between atoms: _487  and  _488
REMARK  199  A    between atoms: _487  and  _490
REMARK  200  A    between atoms: _490  and  _491
REMARK  201  A    between atoms: _491  and  _492
REMARK  202  A    between atoms: _492  and  _493
REMARK  203  A    between atoms: _502  and  _504
REMARK  204  A    between atoms: _504  and  _505
REMARK  205  A    between atoms: _504  and  _507
REMARK  206  A    between atoms: _507  and  _508
REMARK  207  A    between atoms: _511  and  _513
REMARK  208  A    between atoms: _513  and  _514
REMARK  209  A    between atoms: _513  and  _516
REMARK  210  A    between atoms: _516  and  _517
REMARK  211  A    between atoms: _517  and  _518
REMARK  212  A    between atoms: _520  and  _522
REMARK  213  A    between atoms: _522  and  _523
REMARK  214  A    between atoms: _522  and  _525
REMARK  215  A    between atoms: _525  and  _526
REMARK  216  A    between atoms: _531  and  _532
REMARK  217  A    between atoms: _534  and  _536
REMARK  218  A    between atoms: _536  and  _537
REMARK  219  A    between atoms: _536  and  _539
REMARK  220  A    between atoms: _539  and  _540
REMARK  221  A    between atoms: _543  and  _545
REMARK  222  A    between atoms: _545  and  _546
REMARK  223  A    between atoms: _545  and  _548
REMARK  224  A    between atoms: _548  and  _549
REMARK  225  A    between atoms: _549  and  _550
REMARK  226  A    between atoms: _550  and  _551
REMARK  227  A    between atoms: _551  and  _552
REMARK  228  A    between atoms: _556  and  _558
REMARK  229  A    between atoms: _558  and  _559
REMARK  230  A    between atoms: _558  and  _561
REMARK  231  A    between atoms: _561  and  _562
REMARK  232  A    between atoms: _562  and  _563
REMARK  233  A    between atoms: _566  and  _568
REMARK  234  A    between atoms: _568  and  _569
REMARK  235  A    between atoms: _568  and  _571
REMARK  236  A    between atoms: _571  and  _572
REMARK  237  A    between atoms: _577  and  _578
REMARK  238  A    between atoms: _580  and  _582
REMARK  239  A    between atoms: _582  and  _583
REMARK  240  A    between atoms: _582  and  _585
REMARK  241  A    between atoms: _585  and  _586
REMARK  242  A    between atoms: _591  and  _592
REMARK                            x       y       z     vdW  Elec       q    Type
REMARK                         _______ _______ _______ _____ _____    ______ ____
ROOT
ATOM      1  O   HOH     1      26.969  83.270   1.324  0.00  0.00    +0.000 OA
ENDROOT
TORSDOF 0
REMARK  Name = ../refined-set-2016/3zxz/3zxz_pocket.pdb
REMARK  242 active torsions:
REMARK  status: ('A' for Active; 'I' for Inactive)
REMARK    1  A    between atoms: _1  and  _3
REMARK    2  A    between atoms: _3  and  _4
REMARK    3  A    between atoms: _3  and  _6
REMARK    4  A    between atoms: _9  and  _11
REMARK    5  A    between atoms: _11  and  _12
REMARK    6  A    between atoms: _11  and  _14
REMARK    7  A    between atoms: _14  and  _15
REMARK    8  A    between atoms: _18  and  _20
REMARK    9  A    between atoms: _20  and  _21
REMARK   10  A    between atoms: _23  and  _25
REMARK   11  A    between atoms: _25  and  _26
REMARK   12  A    between atoms: _25  and  _28
REMARK   13  A    between atoms: _28  and  _29
REMARK   14  A    between atoms: _29  and  _30
REMARK   15  A    between atoms: _30  and  _31
REMARK   16  A    between atoms: _40  and  _42
REMARK   17  A    between atoms: _42  and  _43
REMARK   18  A    between atoms: _45  and  _47
REMARK   19  A    between atoms: _47  and  _48
REMARK   20  A    between atoms: _47  and  _50
REMARK   21  A    between atoms: _52  and  _54
REMARK   22  A    between atoms: _54  and  _55
REMARK   23  A    between atoms: _54  and  _57
REMARK   24  A    between atoms: _60  and  _62
REMARK   25  A    between atoms: _62  and  _63
REMARK   26  A    between atoms: _62  and  _65
REMARK   27  A    between atoms: _65  and  _66
REMARK   28  A    between atoms: _71  and  _72
REMARK   29  A    between atoms: _74  and  _76
REMARK   30  A    between atoms: _76  and  _77
REMARK   31  A    between atoms: _76  and  _79
REMARK   32  A    between atoms: _79  and  _80
REMARK   33  A    between atoms: _85  and  _87
REMARK   34  A    between atoms: _87  and  _88
REMARK   35  A    between atoms: _90  and  _92
REMARK   36  A    between atoms: _92  and  _93
REMARK   37  A    between atoms: _92  and  _95
REMARK   38  A    between atoms: _95  and  _96
REMARK   39  A    between atoms: _101  and  _103
REMARK   40  A    between atoms: _103  and  _104
REMARK   41  A    between atoms: _103  and  _106
REMARK   42  A    between atoms: _108  and  _110
REMARK   43  A    between atoms: _110  and  _111
REMARK   44  A    between atoms: _114  and  _116
REMARK   45  A    between atoms: _116  and  _117
REMARK   46  A    between atoms: _116  and  _119
REMARK   47  A    between atoms: _122  and  _124
REMARK   48  A    between atoms: _124  and  _125
REMARK   49  A    between atoms: _124  and  _127
REMARK   50  A    between atoms: _127  and  _128
REMARK   51  A    between atoms: _128  and  _129
REMARK   52  A    between atoms: _129  and  _130
REMARK   53  A    between atoms: _130  and  _131
REMARK   54  A    between atoms: _135  and  _137
REMARK   55  A    between atoms: _137  and  _138
REMARK   56  A    between atoms: _137  and  _140
REMARK   57  A    between atoms: _140  and  _141
REMARK   58  A    between atoms: _143  and  _145
REMARK   59  A    between atoms: _145  and  _146
REMARK   60  A    between atoms: _145  and  _148
REMARK   61  A    between atoms: _148  and  _149
REMARK   62  A    between atoms: _149  and  _150
REMARK   63  A    between atoms: _152  and  _154
REMARK   64  A    between atoms: _154  and  _155
REMARK   65  A    between atoms: _154  and  _157
REMARK   66  A    between atoms: _157  and  _158
REMARK   67  A    between atoms: _161  and  _163
REMARK   68  A    between atoms: _163  and  _164
REMARK   69  A    between atoms: _163  and  _166
REMARK   70  A    between atoms: _166  and  _167
REMARK   71  A    between atoms: _169  and  _171
REMARK   72  A    between atoms: _171  and  _172
REMARK   73  A    between atoms: _171  and  _174
REMARK   74  A    between atoms: _177  and  _179
REMARK   75  A    between atoms: _179  and  _180
REMARK   76  A    between atoms: _179  and  _182
REMARK   77  A    between atoms: _185  and  _187
REMARK   78  A    between atoms: _187  and  _188
REMARK   79  A    between atoms: _187  and  _190
REMARK   80  A    between atoms: _190  and  _191
REMARK   81  A    between atoms: _195  and  _196
REMARK   82  A    between atoms: _201  and  _203
REMARK   83  A    between atoms: _203  and  _204
REMARK   84  A    between atoms: _203  and  _206
REMARK   85  A    between atoms: _206  and  _207
REMARK   86  A    between atoms: _212  and  _213
REMARK   87  A    between atoms: _215  and  _217
REMARK   88  A    between atoms: _217  and  _218
REMARK   89  A    between atoms: _217  and  _220
REMARK   90  A    between atoms: _220  and  _221
REMARK   91  A    between atoms: _221  and  _222
REMARK   92  A    between atoms: _224  and  _226
REMARK   93  A    between atoms: _226  and  _227
REMARK   94  A    between atoms: _226  and  _229
REMARK   95  A    between atoms: _229  and  _230
REMARK   96  A    between atoms: _230  and  _231
REMARK   97  A    between atoms: _231  and  _232
REMARK   98  A    between atoms: _232  and  _233
REMARK   99  A    between atoms: _237  and  _239
REMARK  100  A    between atoms: _239  and  _240
REMARK  101  A    between atoms: _239  and  _242
REMARK  102  A    between atoms: _242  and  _243
REMARK  103  A    between atoms: _248  and  _250
REMARK  104  A    between atoms: _250  and  _251
REMARK  105  A    between atoms: _253  and  _255
REMARK  106  A    between atoms: _255  and  _256
REMARK  107  A    between atoms: _255  and  _258
REMARK  108  A    between atoms: _258  and  _259
REMARK  109  A    between atoms: _262  and  _264
REMARK  110  A    between atoms: _264  and  _265
REMARK  111  A    between atoms: _264  and  _267
REMARK  112  A    between atoms: _267  and  _268
REMARK  113  A    between atoms: _271  and  _273
REMARK  114  A    between atoms: _273  and  _274
REMARK  115  A    between atoms: _273  and  _276
REMARK  116  A    between atoms: _276  and  _277
REMARK  117  A    between atoms: _277  and  _278
REMARK  118  A    between atoms: _278  and  _279
REMARK  119  A    between atoms: _288  and  _290
REMARK  120  A    between atoms: _290  and  _291
REMARK  121  A    between atoms: _290  and  _293
REMARK  122  A    between atoms: _293  and  _294
REMARK  123  A    between atoms: _299  and  _301
REMARK  124  A    between atoms: _301  and  _302
REMARK  125  A    between atoms: _301  and  _304
REMARK  126  A    between atoms: _304  and  _305
REMARK  127  A    between atoms: _311  and  _313
REMARK  128  A    between atoms: _313  and  _314
REMARK  129  A    between atoms: _313  and  _316
REMARK  130  A    between atoms: _316  and  _317
REMARK  131  A    between atoms: _317  and  _318
REMARK  132  A    between atoms: _318  and  _319
REMARK  133  A    between atoms: _328  and  _330
REMARK  134  A    between atoms: _330  and  _331
REMARK  135  A    between atoms: _330  and  _333
REMARK  136  A    between atoms: _333  and  _334
REMARK  137  A    between atoms: _339  and  _341
REMARK  138  A    between atoms: _341  and  _342
REMARK  139  A    between atoms: _341  and  _344
REMARK  140  A    between atoms: _344  and  _345
REMARK  141  A    between atoms: _348  and  _350
REMARK  142  A    between atoms: _350  and  _351
REMARK  143  A    between atoms: _354  and  _356
REMARK  144  A    between atoms: _356  and  _357
REMARK  145  A    between atoms: _360  and  _362
REMARK  146  A    between atoms: _362  and  _363
REMARK  147  A    between atoms: _362  and  _365
REMARK  148  A    between atoms: _365  and  _366
REMARK  149  A    between atoms: _366  and  _367
REMARK  150  A    between atoms: _367  and  _368
REMARK  151  A    between atoms: _377  and  _379
REMARK  152  A    between atoms: _379  and  _380
REMARK  153  A    between atoms: _379  and  _382
REMARK  154  A    between atoms: _382  and  _383
REMARK  155  A    between atoms: _388  and  _390
REMARK  156  A    between atoms: _390  and  _391
REMARK  157  A    between atoms: _390  and  _393
REMARK  158  A    between atoms: _395  and  _397
REMARK  159  A    between atoms: _397  and  _398
REMARK  160  A    between atoms: _397  and  _400
REMARK  161  A    between atoms: _400  and  _401
REMARK  162  A    between atoms: _401  and  _402
REMARK  163  A    between atoms: _404  and  _406
REMARK  164  A    between atoms: _406  and  _407
REMARK  165  A    between atoms: _406  and  _409
REMARK  166  A    between atoms: _409  and  _410
REMARK  167  A    between atoms: _413  and  _415
REMARK  168  A    between atoms: _415  and  _416
REMARK  169  A    between atoms: _415  and  _418
REMARK  170  A    between atoms: _418  and  _419
REMARK  171  A    between atoms: _422  and  _424
REMARK  172  A    between atoms: _424  and  _425
REMARK  173  A    between atoms: _424  and  _427
REMARK  174  A    between atoms: _427  and  _428
REMARK  175  A    between atoms: _428  and  _429
REMARK  176  A    between atoms: _429  and  _430
REMARK  177  A    between atoms: _430  and  _431
REMARK  178  A    between atoms: _435  and  _437
REMARK  179  A    between atoms: _437  and  _438
REMARK  180  A    between atoms: _437  and  _440
REMARK  181  A    between atoms: _443  and  _445
REMARK  182  A    between atoms: _445  and  _446
REMARK  183  A    between atoms: _449  and  _451
REMARK  184  A    between atoms: _451  and  _452
REMARK  185  A    between atoms: _451  and  _454
REMARK  186  A    between atoms: _454  and  _455
REMARK  187  A    between atoms: _458  and  _460
REMARK  188  A    between atoms: _460  and  _461
REMARK  189  A    between atoms: _460  and  _463
REMARK  190  A    between atoms: _463  and  _464
REMARK  191  A    between atoms: _470  and  _472
REMARK  192  A    between atoms: _472  and  _473
REMARK  193  A    between atoms: _472  and  _475
REMARK  194  A    between atoms: _475  and  _476
REMARK  195  A    between atoms: _479  and  _481
REMARK  196  A    between atoms: _481  and  _482
REMARK  197  A    between atoms: _485  and  _487
REMARK  198  A    between atoms: _487  and  _488
REMARK  199  A    between atoms: _487  and  _490
REMARK  200  A    between atoms: _490  and  _491
REMARK  201  A    between atoms: _491  and  _492
REMARK  202  A    between atoms: _492  and  _493
REMARK  203  A    between atoms: _502  and  _504
REMARK  204  A    between atoms: _504  and  _505
REMARK  205  A    between atoms: _504  and  _507
REMARK  206  A    between atoms: _507  and  _508
REMARK  207  A    between atoms: _511  and  _513
REMARK  208  A    between atoms: _513  and  _514
REMARK  209  A    between atoms: _513  and  _516
REMARK  210  A    between atoms: _516  and  _517
REMARK  211  A    between atoms: _517  and  _518
REMARK  212  A    between atoms: _520  and  _522
REMARK  213  A    between atoms: _522  and  _523
REMARK  214  A    between atoms: _522  and  _525
REMARK  215  A    between atoms: _525  and  _526
REMARK  216  A    between atoms: _531  and  _532
REMARK  217  A    between atoms: _534  and  _536
REMARK  218  A    between atoms: _536  and  _537
REMARK  219  A    between atoms: _536  and  _539
REMARK  220  A    between atoms: _539  and  _540
REMARK  221  A    between atoms: _543  and  _545
REMARK  222  A    between atoms: _545  and  _546
REMARK  223  A    between atoms: _545  and  _548
REMARK  224  A    between atoms: _548  and  _549
REMARK  225  A    between atoms: _549  and  _550
REMARK  226  A    between atoms: _550  and  _551
REMARK  227  A    between atoms: _551  and  _552
REMARK  228  A    between atoms: _556  and  _558
REMARK  229  A    between atoms: _558  and  _559
REMARK  230  A    between atoms: _558  and  _561
REMARK  231  A    between atoms: _561  and  _562
REMARK  232  A    between atoms: _562  and  _563
REMARK  233  A    between atoms: _566  and  _568
REMARK  234  A    between atoms: _568  and  _569
REMARK  235  A    between atoms: _568  and  _571
REMARK  236  A    between atoms: _571  and  _572
REMARK  237  A    between atoms: _577  and  _578
REMARK  238  A    between atoms: _580  and  _582
REMARK  239  A    between atoms: _582  and  _583
REMARK  240  A    between atoms: _582  and  _585
REMARK  241  A    between atoms: _585  and  _586
REMARK  242  A    between atoms: _591  and  _592
REMARK                            x       y       z     vdW  Elec       q    Type
REMARK                         _______ _______ _______ _____ _____    ______ ____
ROOT
ATOM      1  O   HOH     1      24.944  77.755   0.683  0.00  0.00    +0.000 OA
ENDROOT
TORSDOF 0
REMARK  Name = ../refined-set-2016/3zxz/3zxz_pocket.pdb
REMARK  242 active torsions:
REMARK  status: ('A' for Active; 'I' for Inactive)
REMARK    1  A    between atoms: _1  and  _3
REMARK    2  A    between atoms: _3  and  _4
REMARK    3  A    between atoms: _3  and  _6
REMARK    4  A    between atoms: _9  and  _11
REMARK    5  A    between atoms: _11  and  _12
REMARK    6  A    between atoms: _11  and  _14
REMARK    7  A    between atoms: _14  and  _15
REMARK    8  A    between atoms: _18  and  _20
REMARK    9  A    between atoms: _20  and  _21
REMARK   10  A    between atoms: _23  and  _25
REMARK   11  A    between atoms: _25  and  _26
REMARK   12  A    between atoms: _25  and  _28
REMARK   13  A    between atoms: _28  and  _29
REMARK   14  A    between atoms: _29  and  _30
REMARK   15  A    between atoms: _30  and  _31
REMARK   16  A    between atoms: _40  and  _42
REMARK   17  A    between atoms: _42  and  _43
REMARK   18  A    between atoms: _45  and  _47
REMARK   19  A    between atoms: _47  and  _48
REMARK   20  A    between atoms: _47  and  _50
REMARK   21  A    between atoms: _52  and  _54
REMARK   22  A    between atoms: _54  and  _55
REMARK   23  A    between atoms: _54  and  _57
REMARK   24  A    between atoms: _60  and  _62
REMARK   25  A    between atoms: _62  and  _63
REMARK   26  A    between atoms: _62  and  _65
REMARK   27  A    between atoms: _65  and  _66
REMARK   28  A    between atoms: _71  and  _72
REMARK   29  A    between atoms: _74  and  _76
REMARK   30  A    between atoms: _76  and  _77
REMARK   31  A    between atoms: _76  and  _79
REMARK   32  A    between atoms: _79  and  _80
REMARK   33  A    between atoms: _85  and  _87
REMARK   34  A    between atoms: _87  and  _88
REMARK   35  A    between atoms: _90  and  _92
REMARK   36  A    between atoms: _92  and  _93
REMARK   37  A    between atoms: _92  and  _95
REMARK   38  A    between atoms: _95  and  _96
REMARK   39  A    between atoms: _101  and  _103
REMARK   40  A    between atoms: _103  and  _104
REMARK   41  A    between atoms: _103  and  _106
REMARK   42  A    between atoms: _108  and  _110
REMARK   43  A    between atoms: _110  and  _111
REMARK   44  A    between atoms: _114  and  _116
REMARK   45  A    between atoms: _116  and  _117
REMARK   46  A    between atoms: _116  and  _119
REMARK   47  A    between atoms: _122  and  _124
REMARK   48  A    between atoms: _124  and  _125
REMARK   49  A    between atoms: _124  and  _127
REMARK   50  A    between atoms: _127  and  _128
REMARK   51  A    between atoms: _128  and  _129
REMARK   52  A    between atoms: _129  and  _130
REMARK   53  A    between atoms: _130  and  _131
REMARK   54  A    between atoms: _135  and  _137
REMARK   55  A    between atoms: _137  and  _138
REMARK   56  A    between atoms: _137  and  _140
REMARK   57  A    between atoms: _140  and  _141
REMARK   58  A    between atoms: _143  and  _145
REMARK   59  A    between atoms: _145  and  _146
REMARK   60  A    between atoms: _145  and  _148
REMARK   61  A    between atoms: _148  and  _149
REMARK   62  A    between atoms: _149  and  _150
REMARK   63  A    between atoms: _152  and  _154
REMARK   64  A    between atoms: _154  and  _155
REMARK   65  A    between atoms: _154  and  _157
REMARK   66  A    between atoms: _157  and  _158
REMARK   67  A    between atoms: _161  and  _163
REMARK   68  A    between atoms: _163  and  _164
REMARK   69  A    between atoms: _163  and  _166
REMARK   70  A    between atoms: _166  and  _167
REMARK   71  A    between atoms: _169  and  _171
REMARK   72  A    between atoms: _171  and  _172
REMARK   73  A    between atoms: _171  and  _174
REMARK   74  A    between atoms: _177  and  _179
REMARK   75  A    between atoms: _179  and  _180
REMARK   76  A    between atoms: _179  and  _182
REMARK   77  A    between atoms: _185  and  _187
REMARK   78  A    between atoms: _187  and  _188
REMARK   79  A    between atoms: _187  and  _190
REMARK   80  A    between atoms: _190  and  _191
REMARK   81  A    between atoms: _195  and  _196
REMARK   82  A    between atoms: _201  and  _203
REMARK   83  A    between atoms: _203  and  _204
REMARK   84  A    between atoms: _203  and  _206
REMARK   85  A    between atoms: _206  and  _207
REMARK   86  A    between atoms: _212  and  _213
REMARK   87  A    between atoms: _215  and  _217
REMARK   88  A    between atoms: _217  and  _218
REMARK   89  A    between atoms: _217  and  _220
REMARK   90  A    between atoms: _220  and  _221
REMARK   91  A    between atoms: _221  and  _222
REMARK   92  A    between atoms: _224  and  _226
REMARK   93  A    between atoms: _226  and  _227
REMARK   94  A    between atoms: _226  and  _229
REMARK   95  A    between atoms: _229  and  _230
REMARK   96  A    between atoms: _230  and  _231
REMARK   97  A    between atoms: _231  and  _232
REMARK   98  A    between atoms: _232  and  _233
REMARK   99  A    between atoms: _237  and  _239
REMARK  100  A    between atoms: _239  and  _240
REMARK  101  A    between atoms: _239  and  _242
REMARK  102  A    between atoms: _242  and  _243
REMARK  103  A    between atoms: _248  and  _250
REMARK  104  A    between atoms: _250  and  _251
REMARK  105  A    between atoms: _253  and  _255
REMARK  106  A    between atoms: _255  and  _256
REMARK  107  A    between atoms: _255  and  _258
REMARK  108  A    between atoms: _258  and  _259
REMARK  109  A    between atoms: _262  and  _264
REMARK  110  A    between atoms: _264  and  _265
REMARK  111  A    between atoms: _264  and  _267
REMARK  112  A    between atoms: _267  and  _268
REMARK  113  A    between atoms: _271  and  _273
REMARK  114  A    between atoms: _273  and  _274
REMARK  115  A    between atoms: _273  and  _276
REMARK  116  A    between atoms: _276  and  _277
REMARK  117  A    between atoms: _277  and  _278
REMARK  118  A    between atoms: _278  and  _279
REMARK  119  A    between atoms: _288  and  _290
REMARK  120  A    between atoms: _290  and  _291
REMARK  121  A    between atoms: _290  and  _293
REMARK  122  A    between atoms: _293  and  _294
REMARK  123  A    between atoms: _299  and  _301
REMARK  124  A    between atoms: _301  and  _302
REMARK  125  A    between atoms: _301  and  _304
REMARK  126  A    between atoms: _304  and  _305
REMARK  127  A    between atoms: _311  and  _313
REMARK  128  A    between atoms: _313  and  _314
REMARK  129  A    between atoms: _313  and  _316
REMARK  130  A    between atoms: _316  and  _317
REMARK  131  A    between atoms: _317  and  _318
REMARK  132  A    between atoms: _318  and  _319
REMARK  133  A    between atoms: _328  and  _330
REMARK  134  A    between atoms: _330  and  _331
REMARK  135  A    between atoms: _330  and  _333
REMARK  136  A    between atoms: _333  and  _334
REMARK  137  A    between atoms: _339  and  _341
REMARK  138  A    between atoms: _341  and  _342
REMARK  139  A    between atoms: _341  and  _344
REMARK  140  A    between atoms: _344  and  _345
REMARK  141  A    between atoms: _348  and  _350
REMARK  142  A    between atoms: _350  and  _351
REMARK  143  A    between atoms: _354  and  _356
REMARK  144  A    between atoms: _356  and  _357
REMARK  145  A    between atoms: _360  and  _362
REMARK  146  A    between atoms: _362  and  _363
REMARK  147  A    between atoms: _362  and  _365
REMARK  148  A    between atoms: _365  and  _366
REMARK  149  A    between atoms: _366  and  _367
REMARK  150  A    between atoms: _367  and  _368
REMARK  151  A    between atoms: _377  and  _379
REMARK  152  A    between atoms: _379  and  _380
REMARK  153  A    between atoms: _379  and  _382
REMARK  154  A    between atoms: _382  and  _383
REMARK  155  A    between atoms: _388  and  _390
REMARK  156  A    between atoms: _390  and  _391
REMARK  157  A    between atoms: _390  and  _393
REMARK  158  A    between atoms: _395  and  _397
REMARK  159  A    between atoms: _397  and  _398
REMARK  160  A    between atoms: _397  and  _400
REMARK  161  A    between atoms: _400  and  _401
REMARK  162  A    between atoms: _401  and  _402
REMARK  163  A    between atoms: _404  and  _406
REMARK  164  A    between atoms: _406  and  _407
REMARK  165  A    between atoms: _406  and  _409
REMARK  166  A    between atoms: _409  and  _410
REMARK  167  A    between atoms: _413  and  _415
REMARK  168  A    between atoms: _415  and  _416
REMARK  169  A    between atoms: _415  and  _418
REMARK  170  A    between atoms: _418  and  _419
REMARK  171  A    between atoms: _422  and  _424
REMARK  172  A    between atoms: _424  and  _425
REMARK  173  A    between atoms: _424  and  _427
REMARK  174  A    between atoms: _427  and  _428
REMARK  175  A    between atoms: _428  and  _429
REMARK  176  A    between atoms: _429  and  _430
REMARK  177  A    between atoms: _430  and  _431
REMARK  178  A    between atoms: _435  and  _437
REMARK  179  A    between atoms: _437  and  _438
REMARK  180  A    between atoms: _437  and  _440
REMARK  181  A    between atoms: _443  and  _445
REMARK  182  A    between atoms: _445  and  _446
REMARK  183  A    between atoms: _449  and  _451
REMARK  184  A    between atoms: _451  and  _452
REMARK  185  A    between atoms: _451  and  _454
REMARK  186  A    between atoms: _454  and  _455
REMARK  187  A    between atoms: _458  and  _460
REMARK  188  A    between atoms: _460  and  _461
REMARK  189  A    between atoms: _460  and  _463
REMARK  190  A    between atoms: _463  and  _464
REMARK  191  A    between atoms: _470  and  _472
REMARK  192  A    between atoms: _472  and  _473
REMARK  193  A    between atoms: _472  and  _475
REMARK  194  A    between atoms: _475  and  _476
REMARK  195  A    between atoms: _479  and  _481
REMARK  196  A    between atoms: _481  and  _482
REMARK  197  A    between atoms: _485  and  _487
REMARK  198  A    between atoms: _487  and  _488
REMARK  199  A    between atoms: _487  and  _490
REMARK  200  A    between atoms: _490  and  _491
REMARK  201  A    between atoms: _491  and  _492
REMARK  202  A    between atoms: _492  and  _493
REMARK  203  A    between atoms: _502  and  _504
REMARK  204  A    between atoms: _504  and  _505
REMARK  205  A    between atoms: _504  and  _507
REMARK  206  A    between atoms: _507  and  _508
REMARK  207  A    between atoms: _511  and  _513
REMARK  208  A    between atoms: _513  and  _514
REMARK  209  A    between atoms: _513  and  _516
REMARK  210  A    between atoms: _516  and  _517
REMARK  211  A    between atoms: _517  and  _518
REMARK  212  A    between atoms: _520  and  _522
REMARK  213  A    between atoms: _522  and  _523
REMARK  214  A    between atoms: _522  and  _525
REMARK  215  A    between atoms: _525  and  _526
REMARK  216  A    between atoms: _531  and  _532
REMARK  217  A    between atoms: _534  and  _536
REMARK  218  A    between atoms: _536  and  _537
REMARK  219  A    between atoms: _536  and  _539
REMARK  220  A    between atoms: _539  and  _540
REMARK  221  A    between atoms: _543  and  _545
REMARK  222  A    between atoms: _545  and  _546
REMARK  223  A    between atoms: _545  and  _548
REMARK  224  A    between atoms: _548  and  _549
REMARK  225  A    between atoms: _549  and  _550
REMARK  226  A    between atoms: _550  and  _551
REMARK  227  A    between atoms: _551  and  _552
REMARK  228  A    between atoms: _556  and  _558
REMARK  229  A    between atoms: _558  and  _559
REMARK  230  A    between atoms: _558  and  _561
REMARK  231  A    between atoms: _561  and  _562
REMARK  232  A    between atoms: _562  and  _563
REMARK  233  A    between atoms: _566  and  _568
REMARK  234  A    between atoms: _568  and  _569
REMARK  235  A    between atoms: _568  and  _571
REMARK  236  A    between atoms: _571  and  _572
REMARK  237  A    between atoms: _577  and  _578
REMARK  238  A    between atoms: _580  and  _582
REMARK  239  A    between atoms: _582  and  _583
REMARK  240  A    between atoms: _582  and  _585
REMARK  241  A    between atoms: _585  and  _586
REMARK  242  A    between atoms: _591  and  _592
REMARK                            x       y       z     vdW  Elec       q    Type
REMARK                         _______ _______ _______ _____ _____    ______ ____
ROOT
ATOM      1  O   HOH     1      22.107  81.591   0.949  0.00  0.00    +0.000 OA
ENDROOT
TORSDOF 0
REMARK  Name = ../refined-set-2016/3zxz/3zxz_pocket.pdb
REMARK  242 active torsions:
REMARK  status: ('A' for Active; 'I' for Inactive)
REMARK    1  A    between atoms: _1  and  _3
REMARK    2  A    between atoms: _3  and  _4
REMARK    3  A    between atoms: _3  and  _6
REMARK    4  A    between atoms: _9  and  _11
REMARK    5  A    between atoms: _11  and  _12
REMARK    6  A    between atoms: _11  and  _14
REMARK    7  A    between atoms: _14  and  _15
REMARK    8  A    between atoms: _18  and  _20
REMARK    9  A    between atoms: _20  and  _21
REMARK   10  A    between atoms: _23  and  _25
REMARK   11  A    between atoms: _25  and  _26
REMARK   12  A    between atoms: _25  and  _28
REMARK   13  A    between atoms: _28  and  _29
REMARK   14  A    between atoms: _29  and  _30
REMARK   15  A    between atoms: _30  and  _31
REMARK   16  A    between atoms: _40  and  _42
REMARK   17  A    between atoms: _42  and  _43
REMARK   18  A    between atoms: _45  and  _47
REMARK   19  A    between atoms: _47  and  _48
REMARK   20  A    between atoms: _47  and  _50
REMARK   21  A    between atoms: _52  and  _54
REMARK   22  A    between atoms: _54  and  _55
REMARK   23  A    between atoms: _54  and  _57
REMARK   24  A    between atoms: _60  and  _62
REMARK   25  A    between atoms: _62  and  _63
REMARK   26  A    between atoms: _62  and  _65
REMARK   27  A    between atoms: _65  and  _66
REMARK   28  A    between atoms: _71  and  _72
REMARK   29  A    between atoms: _74  and  _76
REMARK   30  A    between atoms: _76  and  _77
REMARK   31  A    between atoms: _76  and  _79
REMARK   32  A    between atoms: _79  and  _80
REMARK   33  A    between atoms: _85  and  _87
REMARK   34  A    between atoms: _87  and  _88
REMARK   35  A    between atoms: _90  and  _92
REMARK   36  A    between atoms: _92  and  _93
REMARK   37  A    between atoms: _92  and  _95
REMARK   38  A    between atoms: _95  and  _96
REMARK   39  A    between atoms: _101  and  _103
REMARK   40  A    between atoms: _103  and  _104
REMARK   41  A    between atoms: _103  and  _106
REMARK   42  A    between atoms: _108  and  _110
REMARK   43  A    between atoms: _110  and  _111
REMARK   44  A    between atoms: _114  and  _116
REMARK   45  A    between atoms: _116  and  _117
REMARK   46  A    between atoms: _116  and  _119
REMARK   47  A    between atoms: _122  and  _124
REMARK   48  A    between atoms: _124  and  _125
REMARK   49  A    between atoms: _124  and  _127
REMARK   50  A    between atoms: _127  and  _128
REMARK   51  A    between atoms: _128  and  _129
REMARK   52  A    between atoms: _129  and  _130
REMARK   53  A    between atoms: _130  and  _131
REMARK   54  A    between atoms: _135  and  _137
REMARK   55  A    between atoms: _137  and  _138
REMARK   56  A    between atoms: _137  and  _140
REMARK   57  A    between atoms: _140  and  _141
REMARK   58  A    between atoms: _143  and  _145
REMARK   59  A    between atoms: _145  and  _146
REMARK   60  A    between atoms: _145  and  _148
REMARK   61  A    between atoms: _148  and  _149
REMARK   62  A    between atoms: _149  and  _150
REMARK   63  A    between atoms: _152  and  _154
REMARK   64  A    between atoms: _154  and  _155
REMARK   65  A    between atoms: _154  and  _157
REMARK   66  A    between atoms: _157  and  _158
REMARK   67  A    between atoms: _161  and  _163
REMARK   68  A    between atoms: _163  and  _164
REMARK   69  A    between atoms: _163  and  _166
REMARK   70  A    between atoms: _166  and  _167
REMARK   71  A    between atoms: _169  and  _171
REMARK   72  A    between atoms: _171  and  _172
REMARK   73  A    between atoms: _171  and  _174
REMARK   74  A    between atoms: _177  and  _179
REMARK   75  A    between atoms: _179  and  _180
REMARK   76  A    between atoms: _179  and  _182
REMARK   77  A    between atoms: _185  and  _187
REMARK   78  A    between atoms: _187  and  _188
REMARK   79  A    between atoms: _187  and  _190
REMARK   80  A    between atoms: _190  and  _191
REMARK   81  A    between atoms: _195  and  _196
REMARK   82  A    between atoms: _201  and  _203
REMARK   83  A    between atoms: _203  and  _204
REMARK   84  A    between atoms: _203  and  _206
REMARK   85  A    between atoms: _206  and  _207
REMARK   86  A    between atoms: _212  and  _213
REMARK   87  A    between atoms: _215  and  _217
REMARK   88  A    between atoms: _217  and  _218
REMARK   89  A    between atoms: _217  and  _220
REMARK   90  A    between atoms: _220  and  _221
REMARK   91  A    between atoms: _221  and  _222
REMARK   92  A    between atoms: _224  and  _226
REMARK   93  A    between atoms: _226  and  _227
REMARK   94  A    between atoms: _226  and  _229
REMARK   95  A    between atoms: _229  and  _230
REMARK   96  A    between atoms: _230  and  _231
REMARK   97  A    between atoms: _231  and  _232
REMARK   98  A    between atoms: _232  and  _233
REMARK   99  A    between atoms: _237  and  _239
REMARK  100  A    between atoms: _239  and  _240
REMARK  101  A    between atoms: _239  and  _242
REMARK  102  A    between atoms: _242  and  _243
REMARK  103  A    between atoms: _248  and  _250
REMARK  104  A    between atoms: _250  and  _251
REMARK  105  A    between atoms: _253  and  _255
REMARK  106  A    between atoms: _255  and  _256
REMARK  107  A    between atoms: _255  and  _258
REMARK  108  A    between atoms: _258  and  _259
REMARK  109  A    between atoms: _262  and  _264
REMARK  110  A    between atoms: _264  and  _265
REMARK  111  A    between atoms: _264  and  _267
REMARK  112  A    between atoms: _267  and  _268
REMARK  113  A    between atoms: _271  and  _273
REMARK  114  A    between atoms: _273  and  _274
REMARK  115  A    between atoms: _273  and  _276
REMARK  116  A    between atoms: _276  and  _277
REMARK  117  A    between atoms: _277  and  _278
REMARK  118  A    between atoms: _278  and  _279
REMARK  119  A    between atoms: _288  and  _290
REMARK  120  A    between atoms: _290  and  _291
REMARK  121  A    between atoms: _290  and  _293
REMARK  122  A    between atoms: _293  and  _294
REMARK  123  A    between atoms: _299  and  _301
REMARK  124  A    between atoms: _301  and  _302
REMARK  125  A    between atoms: _301  and  _304
REMARK  126  A    between atoms: _304  and  _305
REMARK  127  A    between atoms: _311  and  _313
REMARK  128  A    between atoms: _313  and  _314
REMARK  129  A    between atoms: _313  and  _316
REMARK  130  A    between atoms: _316  and  _317
REMARK  131  A    between atoms: _317  and  _318
REMARK  132  A    between atoms: _318  and  _319
REMARK  133  A    between atoms: _328  and  _330
REMARK  134  A    between atoms: _330  and  _331
REMARK  135  A    between atoms: _330  and  _333
REMARK  136  A    between atoms: _333  and  _334
REMARK  137  A    between atoms: _339  and  _341
REMARK  138  A    between atoms: _341  and  _342
REMARK  139  A    between atoms: _341  and  _344
REMARK  140  A    between atoms: _344  and  _345
REMARK  141  A    between atoms: _348  and  _350
REMARK  142  A    between atoms: _350  and  _351
REMARK  143  A    between atoms: _354  and  _356
REMARK  144  A    between atoms: _356  and  _357
REMARK  145  A    between atoms: _360  and  _362
REMARK  146  A    between atoms: _362  and  _363
REMARK  147  A    between atoms: _362  and  _365
REMARK  148  A    between atoms: _365  and  _366
REMARK  149  A    between atoms: _366  and  _367
REMARK  150  A    between atoms: _367  and  _368
REMARK  151  A    between atoms: _377  and  _379
REMARK  152  A    between atoms: _379  and  _380
REMARK  153  A    between atoms: _379  and  _382
REMARK  154  A    between atoms: _382  and  _383
REMARK  155  A    between atoms: _388  and  _390
REMARK  156  A    between atoms: _390  and  _391
REMARK  157  A    between atoms: _390  and  _393
REMARK  158  A    between atoms: _395  and  _397
REMARK  159  A    between atoms: _397  and  _398
REMARK  160  A    between atoms: _397  and  _400
REMARK  161  A    between atoms: _400  and  _401
REMARK  162  A    between atoms: _401  and  _402
REMARK  163  A    between atoms: _404  and  _406
REMARK  164  A    between atoms: _406  and  _407
REMARK  165  A    between atoms: _406  and  _409
REMARK  166  A    between atoms: _409  and  _410
REMARK  167  A    between atoms: _413  and  _415
REMARK  168  A    between atoms: _415  and  _416
REMARK  169  A    between atoms: _415  and  _418
REMARK  170  A    between atoms: _418  and  _419
REMARK  171  A    between atoms: _422  and  _424
REMARK  172  A    between atoms: _424  and  _425
REMARK  173  A    between atoms: _424  and  _427
REMARK  174  A    between atoms: _427  and  _428
REMARK  175  A    between atoms: _428  and  _429
REMARK  176  A    between atoms: _429  and  _430
REMARK  177  A    between atoms: _430  and  _431
REMARK  178  A    between atoms: _435  and  _437
REMARK  179  A    between atoms: _437  and  _438
REMARK  180  A    between atoms: _437  and  _440
REMARK  181  A    between atoms: _443  and  _445
REMARK  182  A    between atoms: _445  and  _446
REMARK  183  A    between atoms: _449  and  _451
REMARK  184  A    between atoms: _451  and  _452
REMARK  185  A    between atoms: _451  and  _454
REMARK  186  A    between atoms: _454  and  _455
REMARK  187  A    between atoms: _458  and  _460
REMARK  188  A    between atoms: _460  and  _461
REMARK  189  A    between atoms: _460  and  _463
REMARK  190  A    between atoms: _463  and  _464
REMARK  191  A    between atoms: _470  and  _472
REMARK  192  A    between atoms: _472  and  _473
REMARK  193  A    between atoms: _472  and  _475
REMARK  194  A    between atoms: _475  and  _476
REMARK  195  A    between atoms: _479  and  _481
REMARK  196  A    between atoms: _481  and  _482
REMARK  197  A    between atoms: _485  and  _487
REMARK  198  A    between atoms: _487  and  _488
REMARK  199  A    between atoms: _487  and  _490
REMARK  200  A    between atoms: _490  and  _491
REMARK  201  A    between atoms: _491  and  _492
REMARK  202  A    between atoms: _492  and  _493
REMARK  203  A    between atoms: _502  and  _504
REMARK  204  A    between atoms: _504  and  _505
REMARK  205  A    between atoms: _504  and  _507
REMARK  206  A    between atoms: _507  and  _508
REMARK  207  A    between atoms: _511  and  _513
REMARK  208  A    between atoms: _513  and  _514
REMARK  209  A    between atoms: _513  and  _516
REMARK  210  A    between atoms: _516  and  _517
REMARK  211  A    between atoms: _517  and  _518
REMARK  212  A    between atoms: _520  and  _522
REMARK  213  A    between atoms: _522  and  _523
REMARK  214  A    between atoms: _522  and  _525
REMARK  215  A    between atoms: _525  and  _526
REMARK  216  A    between atoms: _531  and  _532
REMARK  217  A    between atoms: _534  and  _536
REMARK  218  A    between atoms: _536  and  _537
REMARK  219  A    between atoms: _536  and  _539
REMARK  220  A    between atoms: _539  and  _540
REMARK  221  A    between atoms: _543  and  _545
REMARK  222  A    between atoms: _545  and  _546
REMARK  223  A    between atoms: _545  and  _548
REMARK  224  A    between atoms: _548  and  _549
REMARK  225  A    between atoms: _549  and  _550
REMARK  226  A    between atoms: _550  and  _551
REMARK  227  A    between atoms: _551  and  _552
REMARK  228  A    between atoms: _556  and  _558
REMARK  229  A    between atoms: _558  and  _559
REMARK  230  A    between atoms: _558  and  _561
REMARK  231  A    between atoms: _561  and  _562
REMARK  232  A    between atoms: _562  and  _563
REMARK  233  A    between atoms: _566  and  _568
REMARK  234  A    between atoms: _568  and  _569
REMARK  235  A    between atoms: _568  and  _571
REMARK  236  A    between atoms: _571  and  _572
REMARK  237  A    between atoms: _577  and  _578
REMARK  238  A    between atoms: _580  and  _582
REMARK  239  A    between atoms: _582  and  _583
REMARK  240  A    between atoms: _582  and  _585
REMARK  241  A    between atoms: _585  and  _586
REMARK  242  A    between atoms: _591  and  _592
REMARK                            x       y       z     vdW  Elec       q    Type
REMARK                         _______ _______ _______ _____ _____    ______ ____
ROOT
ATOM      1  O   HOH     1      17.777  76.411   0.187  0.00  0.00    +0.000 OA
ENDROOT
TORSDOF 0
REMARK  Name = ../refined-set-2016/3zxz/3zxz_pocket.pdb
REMARK  242 active torsions:
REMARK  status: ('A' for Active; 'I' for Inactive)
REMARK    1  A    between atoms: _1  and  _3
REMARK    2  A    between atoms: _3  and  _4
REMARK    3  A    between atoms: _3  and  _6
REMARK    4  A    between atoms: _9  and  _11
REMARK    5  A    between atoms: _11  and  _12
REMARK    6  A    between atoms: _11  and  _14
REMARK    7  A    between atoms: _14  and  _15
REMARK    8  A    between atoms: _18  and  _20
REMARK    9  A    between atoms: _20  and  _21
REMARK   10  A    between atoms: _23  and  _25
REMARK   11  A    between atoms: _25  and  _26
REMARK   12  A    between atoms: _25  and  _28
REMARK   13  A    between atoms: _28  and  _29
REMARK   14  A    between atoms: _29  and  _30
REMARK   15  A    between atoms: _30  and  _31
REMARK   16  A    between atoms: _40  and  _42
REMARK   17  A    between atoms: _42  and  _43
REMARK   18  A    between atoms: _45  and  _47
REMARK   19  A    between atoms: _47  and  _48
REMARK   20  A    between atoms: _47  and  _50
REMARK   21  A    between atoms: _52  and  _54
REMARK   22  A    between atoms: _54  and  _55
REMARK   23  A    between atoms: _54  and  _57
REMARK   24  A    between atoms: _60  and  _62
REMARK   25  A    between atoms: _62  and  _63
REMARK   26  A    between atoms: _62  and  _65
REMARK   27  A    between atoms: _65  and  _66
REMARK   28  A    between atoms: _71  and  _72
REMARK   29  A    between atoms: _74  and  _76
REMARK   30  A    between atoms: _76  and  _77
REMARK   31  A    between atoms: _76  and  _79
REMARK   32  A    between atoms: _79  and  _80
REMARK   33  A    between atoms: _85  and  _87
REMARK   34  A    between atoms: _87  and  _88
REMARK   35  A    between atoms: _90  and  _92
REMARK   36  A    between atoms: _92  and  _93
REMARK   37  A    between atoms: _92  and  _95
REMARK   38  A    between atoms: _95  and  _96
REMARK   39  A    between atoms: _101  and  _103
REMARK   40  A    between atoms: _103  and  _104
REMARK   41  A    between atoms: _103  and  _106
REMARK   42  A    between atoms: _108  and  _110
REMARK   43  A    between atoms: _110  and  _111
REMARK   44  A    between atoms: _114  and  _116
REMARK   45  A    between atoms: _116  and  _117
REMARK   46  A    between atoms: _116  and  _119
REMARK   47  A    between atoms: _122  and  _124
REMARK   48  A    between atoms: _124  and  _125
REMARK   49  A    between atoms: _124  and  _127
REMARK   50  A    between atoms: _127  and  _128
REMARK   51  A    between atoms: _128  and  _129
REMARK   52  A    between atoms: _129  and  _130
REMARK   53  A    between atoms: _130  and  _131
REMARK   54  A    between atoms: _135  and  _137
REMARK   55  A    between atoms: _137  and  _138
REMARK   56  A    between atoms: _137  and  _140
REMARK   57  A    between atoms: _140  and  _141
REMARK   58  A    between atoms: _143  and  _145
REMARK   59  A    between atoms: _145  and  _146
REMARK   60  A    between atoms: _145  and  _148
REMARK   61  A    between atoms: _148  and  _149
REMARK   62  A    between atoms: _149  and  _150
REMARK   63  A    between atoms: _152  and  _154
REMARK   64  A    between atoms: _154  and  _155
REMARK   65  A    between atoms: _154  and  _157
REMARK   66  A    between atoms: _157  and  _158
REMARK   67  A    between atoms: _161  and  _163
REMARK   68  A    between atoms: _163  and  _164
REMARK   69  A    between atoms: _163  and  _166
REMARK   70  A    between atoms: _166  and  _167
REMARK   71  A    between atoms: _169  and  _171
REMARK   72  A    between atoms: _171  and  _172
REMARK   73  A    between atoms: _171  and  _174
REMARK   74  A    between atoms: _177  and  _179
REMARK   75  A    between atoms: _179  and  _180
REMARK   76  A    between atoms: _179  and  _182
REMARK   77  A    between atoms: _185  and  _187
REMARK   78  A    between atoms: _187  and  _188
REMARK   79  A    between atoms: _187  and  _190
REMARK   80  A    between atoms: _190  and  _191
REMARK   81  A    between atoms: _195  and  _196
REMARK   82  A    between atoms: _201  and  _203
REMARK   83  A    between atoms: _203  and  _204
REMARK   84  A    between atoms: _203  and  _206
REMARK   85  A    between atoms: _206  and  _207
REMARK   86  A    between atoms: _212  and  _213
REMARK   87  A    between atoms: _215  and  _217
REMARK   88  A    between atoms: _217  and  _218
REMARK   89  A    between atoms: _217  and  _220
REMARK   90  A    between atoms: _220  and  _221
REMARK   91  A    between atoms: _221  and  _222
REMARK   92  A    between atoms: _224  and  _226
REMARK   93  A    between atoms: _226  and  _227
REMARK   94  A    between atoms: _226  and  _229
REMARK   95  A    between atoms: _229  and  _230
REMARK   96  A    between atoms: _230  and  _231
REMARK   97  A    between atoms: _231  and  _232
REMARK   98  A    between atoms: _232  and  _233
REMARK   99  A    between atoms: _237  and  _239
REMARK  100  A    between atoms: _239  and  _240
REMARK  101  A    between atoms: _239  and  _242
REMARK  102  A    between atoms: _242  and  _243
REMARK  103  A    between atoms: _248  and  _250
REMARK  104  A    between atoms: _250  and  _251
REMARK  105  A    between atoms: _253  and  _255
REMARK  106  A    between atoms: _255  and  _256
REMARK  107  A    between atoms: _255  and  _258
REMARK  108  A    between atoms: _258  and  _259
REMARK  109  A    between atoms: _262  and  _264
REMARK  110  A    between atoms: _264  and  _265
REMARK  111  A    between atoms: _264  and  _267
REMARK  112  A    between atoms: _267  and  _268
REMARK  113  A    between atoms: _271  and  _273
REMARK  114  A    between atoms: _273  and  _274
REMARK  115  A    between atoms: _273  and  _276
REMARK  116  A    between atoms: _276  and  _277
REMARK  117  A    between atoms: _277  and  _278
REMARK  118  A    between atoms: _278  and  _279
REMARK  119  A    between atoms: _288  and  _290
REMARK  120  A    between atoms: _290  and  _291
REMARK  121  A    between atoms: _290  and  _293
REMARK  122  A    between atoms: _293  and  _294
REMARK  123  A    between atoms: _299  and  _301
REMARK  124  A    between atoms: _301  and  _302
REMARK  125  A    between atoms: _301  and  _304
REMARK  126  A    between atoms: _304  and  _305
REMARK  127  A    between atoms: _311  and  _313
REMARK  128  A    between atoms: _313  and  _314
REMARK  129  A    between atoms: _313  and  _316
REMARK  130  A    between atoms: _316  and  _317
REMARK  131  A    between atoms: _317  and  _318
REMARK  132  A    between atoms: _318  and  _319
REMARK  133  A    between atoms: _328  and  _330
REMARK  134  A    between atoms: _330  and  _331
REMARK  135  A    between atoms: _330  and  _333
REMARK  136  A    between atoms: _333  and  _334
REMARK  137  A    between atoms: _339  and  _341
REMARK  138  A    between atoms: _341  and  _342
REMARK  139  A    between atoms: _341  and  _344
REMARK  140  A    between atoms: _344  and  _345
REMARK  141  A    between atoms: _348  and  _350
REMARK  142  A    between atoms: _350  and  _351
REMARK  143  A    between atoms: _354  and  _356
REMARK  144  A    between atoms: _356  and  _357
REMARK  145  A    between atoms: _360  and  _362
REMARK  146  A    between atoms: _362  and  _363
REMARK  147  A    between atoms: _362  and  _365
REMARK  148  A    between atoms: _365  and  _366
REMARK  149  A    between atoms: _366  and  _367
REMARK  150  A    between atoms: _367  and  _368
REMARK  151  A    between atoms: _377  and  _379
REMARK  152  A    between atoms: _379  and  _380
REMARK  153  A    between atoms: _379  and  _382
REMARK  154  A    between atoms: _382  and  _383
REMARK  155  A    between atoms: _388  and  _390
REMARK  156  A    between atoms: _390  and  _391
REMARK  157  A    between atoms: _390  and  _393
REMARK  158  A    between atoms: _395  and  _397
REMARK  159  A    between atoms: _397  and  _398
REMARK  160  A    between atoms: _397  and  _400
REMARK  161  A    between atoms: _400  and  _401
REMARK  162  A    between atoms: _401  and  _402
REMARK  163  A    between atoms: _404  and  _406
REMARK  164  A    between atoms: _406  and  _407
REMARK  165  A    between atoms: _406  and  _409
REMARK  166  A    between atoms: _409  and  _410
REMARK  167  A    between atoms: _413  and  _415
REMARK  168  A    between atoms: _415  and  _416
REMARK  169  A    between atoms: _415  and  _418
REMARK  170  A    between atoms: _418  and  _419
REMARK  171  A    between atoms: _422  and  _424
REMARK  172  A    between atoms: _424  and  _425
REMARK  173  A    between atoms: _424  and  _427
REMARK  174  A    between atoms: _427  and  _428
REMARK  175  A    between atoms: _428  and  _429
REMARK  176  A    between atoms: _429  and  _430
REMARK  177  A    between atoms: _430  and  _431
REMARK  178  A    between atoms: _435  and  _437
REMARK  179  A    between atoms: _437  and  _438
REMARK  180  A    between atoms: _437  and  _440
REMARK  181  A    between atoms: _443  and  _445
REMARK  182  A    between atoms: _445  and  _446
REMARK  183  A    between atoms: _449  and  _451
REMARK  184  A    between atoms: _451  and  _452
REMARK  185  A    between atoms: _451  and  _454
REMARK  186  A    between atoms: _454  and  _455
REMARK  187  A    between atoms: _458  and  _460
REMARK  188  A    between atoms: _460  and  _461
REMARK  189  A    between atoms: _460  and  _463
REMARK  190  A    between atoms: _463  and  _464
REMARK  191  A    between atoms: _470  and  _472
REMARK  192  A    between atoms: _472  and  _473
REMARK  193  A    between atoms: _472  and  _475
REMARK  194  A    between atoms: _475  and  _476
REMARK  195  A    between atoms: _479  and  _481
REMARK  196  A    between atoms: _481  and  _482
REMARK  197  A    between atoms: _485  and  _487
REMARK  198  A    between atoms: _487  and  _488
REMARK  199  A    between atoms: _487  and  _490
REMARK  200  A    between atoms: _490  and  _491
REMARK  201  A    between atoms: _491  and  _492
REMARK  202  A    between atoms: _492  and  _493
REMARK  203  A    between atoms: _502  and  _504
REMARK  204  A    between atoms: _504  and  _505
REMARK  205  A    between atoms: _504  and  _507
REMARK  206  A    between atoms: _507  and  _508
REMARK  207  A    between atoms: _511  and  _513
REMARK  208  A    between atoms: _513  and  _514
REMARK  209  A    between atoms: _513  and  _516
REMARK  210  A    between atoms: _516  and  _517
REMARK  211  A    between atoms: _517  and  _518
REMARK  212  A    between atoms: _520  and  _522
REMARK  213  A    between atoms: _522  and  _523
REMARK  214  A    between atoms: _522  and  _525
REMARK  215  A    between atoms: _525  and  _526
REMARK  216  A    between atoms: _531  and  _532
REMARK  217  A    between atoms: _534  and  _536
REMARK  218  A    between atoms: _536  and  _537
REMARK  219  A    between atoms: _536  and  _539
REMARK  220  A    between atoms: _539  and  _540
REMARK  221  A    between atoms: _543  and  _545
REMARK  222  A    between atoms: _545  and  _546
REMARK  223  A    between atoms: _545  and  _548
REMARK  224  A    between atoms: _548  and  _549
REMARK  225  A    between atoms: _549  and  _550
REMARK  226  A    between atoms: _550  and  _551
REMARK  227  A    between atoms: _551  and  _552
REMARK  228  A    between atoms: _556  and  _558
REMARK  229  A    between atoms: _558  and  _559
REMARK  230  A    between atoms: _558  and  _561
REMARK  231  A    between atoms: _561  and  _562
REMARK  232  A    between atoms: _562  and  _563
REMARK  233  A    between atoms: _566  and  _568
REMARK  234  A    between atoms: _568  and  _569
REMARK  235  A    between atoms: _568  and  _571
REMARK  236  A    between atoms: _571  and  _572
REMARK  237  A    between atoms: _577  and  _578
REMARK  238  A    between atoms: _580  and  _582
REMARK  239  A    between atoms: _582  and  _583
REMARK  240  A    between atoms: _582  and  _585
REMARK  241  A    between atoms: _585  and  _586
REMARK  242  A    between atoms: _591  and  _592
REMARK                            x       y       z     vdW  Elec       q    Type
REMARK                         _______ _______ _______ _____ _____    ______ ____
ROOT
ATOM      1  O   HOH     1      18.166  75.313  -2.193  0.00  0.00    +0.000 OA
ENDROOT
TORSDOF 0
REMARK  Name = ../refined-set-2016/3zxz/3zxz_pocket.pdb
REMARK  242 active torsions:
REMARK  status: ('A' for Active; 'I' for Inactive)
REMARK    1  A    between atoms: _1  and  _3
REMARK    2  A    between atoms: _3  and  _4
REMARK    3  A    between atoms: _3  and  _6
REMARK    4  A    between atoms: _9  and  _11
REMARK    5  A    between atoms: _11  and  _12
REMARK    6  A    between atoms: _11  and  _14
REMARK    7  A    between atoms: _14  and  _15
REMARK    8  A    between atoms: _18  and  _20
REMARK    9  A    between atoms: _20  and  _21
REMARK   10  A    between atoms: _23  and  _25
REMARK   11  A    between atoms: _25  and  _26
REMARK   12  A    between atoms: _25  and  _28
REMARK   13  A    between atoms: _28  and  _29
REMARK   14  A    between atoms: _29  and  _30
REMARK   15  A    between atoms: _30  and  _31
REMARK   16  A    between atoms: _40  and  _42
REMARK   17  A    between atoms: _42  and  _43
REMARK   18  A    between atoms: _45  and  _47
REMARK   19  A    between atoms: _47  and  _48
REMARK   20  A    between atoms: _47  and  _50
REMARK   21  A    between atoms: _52  and  _54
REMARK   22  A    between atoms: _54  and  _55
REMARK   23  A    between atoms: _54  and  _57
REMARK   24  A    between atoms: _60  and  _62
REMARK   25  A    between atoms: _62  and  _63
REMARK   26  A    between atoms: _62  and  _65
REMARK   27  A    between atoms: _65  and  _66
REMARK   28  A    between atoms: _71  and  _72
REMARK   29  A    between atoms: _74  and  _76
REMARK   30  A    between atoms: _76  and  _77
REMARK   31  A    between atoms: _76  and  _79
REMARK   32  A    between atoms: _79  and  _80
REMARK   33  A    between atoms: _85  and  _87
REMARK   34  A    between atoms: _87  and  _88
REMARK   35  A    between atoms: _90  and  _92
REMARK   36  A    between atoms: _92  and  _93
REMARK   37  A    between atoms: _92  and  _95
REMARK   38  A    between atoms: _95  and  _96
REMARK   39  A    between atoms: _101  and  _103
REMARK   40  A    between atoms: _103  and  _104
REMARK   41  A    between atoms: _103  and  _106
REMARK   42  A    between atoms: _108  and  _110
REMARK   43  A    between atoms: _110  and  _111
REMARK   44  A    between atoms: _114  and  _116
REMARK   45  A    between atoms: _116  and  _117
REMARK   46  A    between atoms: _116  and  _119
REMARK   47  A    between atoms: _122  and  _124
REMARK   48  A    between atoms: _124  and  _125
REMARK   49  A    between atoms: _124  and  _127
REMARK   50  A    between atoms: _127  and  _128
REMARK   51  A    between atoms: _128  and  _129
REMARK   52  A    between atoms: _129  and  _130
REMARK   53  A    between atoms: _130  and  _131
REMARK   54  A    between atoms: _135  and  _137
REMARK   55  A    between atoms: _137  and  _138
REMARK   56  A    between atoms: _137  and  _140
REMARK   57  A    between atoms: _140  and  _141
REMARK   58  A    between atoms: _143  and  _145
REMARK   59  A    between atoms: _145  and  _146
REMARK   60  A    between atoms: _145  and  _148
REMARK   61  A    between atoms: _148  and  _149
REMARK   62  A    between atoms: _149  and  _150
REMARK   63  A    between atoms: _152  and  _154
REMARK   64  A    between atoms: _154  and  _155
REMARK   65  A    between atoms: _154  and  _157
REMARK   66  A    between atoms: _157  and  _158
REMARK   67  A    between atoms: _161  and  _163
REMARK   68  A    between atoms: _163  and  _164
REMARK   69  A    between atoms: _163  and  _166
REMARK   70  A    between atoms: _166  and  _167
REMARK   71  A    between atoms: _169  and  _171
REMARK   72  A    between atoms: _171  and  _172
REMARK   73  A    between atoms: _171  and  _174
REMARK   74  A    between atoms: _177  and  _179
REMARK   75  A    between atoms: _179  and  _180
REMARK   76  A    between atoms: _179  and  _182
REMARK   77  A    between atoms: _185  and  _187
REMARK   78  A    between atoms: _187  and  _188
REMARK   79  A    between atoms: _187  and  _190
REMARK   80  A    between atoms: _190  and  _191
REMARK   81  A    between atoms: _195  and  _196
REMARK   82  A    between atoms: _201  and  _203
REMARK   83  A    between atoms: _203  and  _204
REMARK   84  A    between atoms: _203  and  _206
REMARK   85  A    between atoms: _206  and  _207
REMARK   86  A    between atoms: _212  and  _213
REMARK   87  A    between atoms: _215  and  _217
REMARK   88  A    between atoms: _217  and  _218
REMARK   89  A    between atoms: _217  and  _220
REMARK   90  A    between atoms: _220  and  _221
REMARK   91  A    between atoms: _221  and  _222
REMARK   92  A    between atoms: _224  and  _226
REMARK   93  A    between atoms: _226  and  _227
REMARK   94  A    between atoms: _226  and  _229
REMARK   95  A    between atoms: _229  and  _230
REMARK   96  A    between atoms: _230  and  _231
REMARK   97  A    between atoms: _231  and  _232
REMARK   98  A    between atoms: _232  and  _233
REMARK   99  A    between atoms: _237  and  _239
REMARK  100  A    between atoms: _239  and  _240
REMARK  101  A    between atoms: _239  and  _242
REMARK  102  A    between atoms: _242  and  _243
REMARK  103  A    between atoms: _248  and  _250
REMARK  104  A    between atoms: _250  and  _251
REMARK  105  A    between atoms: _253  and  _255
REMARK  106  A    between atoms: _255  and  _256
REMARK  107  A    between atoms: _255  and  _258
REMARK  108  A    between atoms: _258  and  _259
REMARK  109  A    between atoms: _262  and  _264
REMARK  110  A    between atoms: _264  and  _265
REMARK  111  A    between atoms: _264  and  _267
REMARK  112  A    between atoms: _267  and  _268
REMARK  113  A    between atoms: _271  and  _273
REMARK  114  A    between atoms: _273  and  _274
REMARK  115  A    between atoms: _273  and  _276
REMARK  116  A    between atoms: _276  and  _277
REMARK  117  A    between atoms: _277  and  _278
REMARK  118  A    between atoms: _278  and  _279
REMARK  119  A    between atoms: _288  and  _290
REMARK  120  A    between atoms: _290  and  _291
REMARK  121  A    between atoms: _290  and  _293
REMARK  122  A    between atoms: _293  and  _294
REMARK  123  A    between atoms: _299  and  _301
REMARK  124  A    between atoms: _301  and  _302
REMARK  125  A    between atoms: _301  and  _304
REMARK  126  A    between atoms: _304  and  _305
REMARK  127  A    between atoms: _311  and  _313
REMARK  128  A    between atoms: _313  and  _314
REMARK  129  A    between atoms: _313  and  _316
REMARK  130  A    between atoms: _316  and  _317
REMARK  131  A    between atoms: _317  and  _318
REMARK  132  A    between atoms: _318  and  _319
REMARK  133  A    between atoms: _328  and  _330
REMARK  134  A    between atoms: _330  and  _331
REMARK  135  A    between atoms: _330  and  _333
REMARK  136  A    between atoms: _333  and  _334
REMARK  137  A    between atoms: _339  and  _341
REMARK  138  A    between atoms: _341  and  _342
REMARK  139  A    between atoms: _341  and  _344
REMARK  140  A    between atoms: _344  and  _345
REMARK  141  A    between atoms: _348  and  _350
REMARK  142  A    between atoms: _350  and  _351
REMARK  143  A    between atoms: _354  and  _356
REMARK  144  A    between atoms: _356  and  _357
REMARK  145  A    between atoms: _360  and  _362
REMARK  146  A    between atoms: _362  and  _363
REMARK  147  A    between atoms: _362  and  _365
REMARK  148  A    between atoms: _365  and  _366
REMARK  149  A    between atoms: _366  and  _367
REMARK  150  A    between atoms: _367  and  _368
REMARK  151  A    between atoms: _377  and  _379
REMARK  152  A    between atoms: _379  and  _380
REMARK  153  A    between atoms: _379  and  _382
REMARK  154  A    between atoms: _382  and  _383
REMARK  155  A    between atoms: _388  and  _390
REMARK  156  A    between atoms: _390  and  _391
REMARK  157  A    between atoms: _390  and  _393
REMARK  158  A    between atoms: _395  and  _397
REMARK  159  A    between atoms: _397  and  _398
REMARK  160  A    between atoms: _397  and  _400
REMARK  161  A    between atoms: _400  and  _401
REMARK  162  A    between atoms: _401  and  _402
REMARK  163  A    between atoms: _404  and  _406
REMARK  164  A    between atoms: _406  and  _407
REMARK  165  A    between atoms: _406  and  _409
REMARK  166  A    between atoms: _409  and  _410
REMARK  167  A    between atoms: _413  and  _415
REMARK  168  A    between atoms: _415  and  _416
REMARK  169  A    between atoms: _415  and  _418
REMARK  170  A    between atoms: _418  and  _419
REMARK  171  A    between atoms: _422  and  _424
REMARK  172  A    between atoms: _424  and  _425
REMARK  173  A    between atoms: _424  and  _427
REMARK  174  A    between atoms: _427  and  _428
REMARK  175  A    between atoms: _428  and  _429
REMARK  176  A    between atoms: _429  and  _430
REMARK  177  A    between atoms: _430  and  _431
REMARK  178  A    between atoms: _435  and  _437
REMARK  179  A    between atoms: _437  and  _438
REMARK  180  A    between atoms: _437  and  _440
REMARK  181  A    between atoms: _443  and  _445
REMARK  182  A    between atoms: _445  and  _446
REMARK  183  A    between atoms: _449  and  _451
REMARK  184  A    between atoms: _451  and  _452
REMARK  185  A    between atoms: _451  and  _454
REMARK  186  A    between atoms: _454  and  _455
REMARK  187  A    between atoms: _458  and  _460
REMARK  188  A    between atoms: _460  and  _461
REMARK  189  A    between atoms: _460  and  _463
REMARK  190  A    between atoms: _463  and  _464
REMARK  191  A    between atoms: _470  and  _472
REMARK  192  A    between atoms: _472  and  _473
REMARK  193  A    between atoms: _472  and  _475
REMARK  194  A    between atoms: _475  and  _476
REMARK  195  A    between atoms: _479  and  _481
REMARK  196  A    between atoms: _481  and  _482
REMARK  197  A    between atoms: _485  and  _487
REMARK  198  A    between atoms: _487  and  _488
REMARK  199  A    between atoms: _487  and  _490
REMARK  200  A    between atoms: _490  and  _491
REMARK  201  A    between atoms: _491  and  _492
REMARK  202  A    between atoms: _492  and  _493
REMARK  203  A    between atoms: _502  and  _504
REMARK  204  A    between atoms: _504  and  _505
REMARK  205  A    between atoms: _504  and  _507
REMARK  206  A    between atoms: _507  and  _508
REMARK  207  A    between atoms: _511  and  _513
REMARK  208  A    between atoms: _513  and  _514
REMARK  209  A    between atoms: _513  and  _516
REMARK  210  A    between atoms: _516  and  _517
REMARK  211  A    between atoms: _517  and  _518
REMARK  212  A    between atoms: _520  and  _522
REMARK  213  A    between atoms: _522  and  _523
REMARK  214  A    between atoms: _522  and  _525
REMARK  215  A    between atoms: _525  and  _526
REMARK  216  A    between atoms: _531  and  _532
REMARK  217  A    between atoms: _534  and  _536
REMARK  218  A    between atoms: _536  and  _537
REMARK  219  A    between atoms: _536  and  _539
REMARK  220  A    between atoms: _539  and  _540
REMARK  221  A    between atoms: _543  and  _545
REMARK  222  A    between atoms: _545  and  _546
REMARK  223  A    between atoms: _545  and  _548
REMARK  224  A    between atoms: _548  and  _549
REMARK  225  A    between atoms: _549  and  _550
REMARK  226  A    between atoms: _550  and  _551
REMARK  227  A    between atoms: _551  and  _552
REMARK  228  A    between atoms: _556  and  _558
REMARK  229  A    between atoms: _558  and  _559
REMARK  230  A    between atoms: _558  and  _561
REMARK  231  A    between atoms: _561  and  _562
REMARK  232  A    between atoms: _562  and  _563
REMARK  233  A    between atoms: _566  and  _568
REMARK  234  A    between atoms: _568  and  _569
REMARK  235  A    between atoms: _568  and  _571
REMARK  236  A    between atoms: _571  and  _572
REMARK  237  A    between atoms: _577  and  _578
REMARK  238  A    between atoms: _580  and  _582
REMARK  239  A    between atoms: _582  and  _583
REMARK  240  A    between atoms: _582  and  _585
REMARK  241  A    between atoms: _585  and  _586
REMARK  242  A    between atoms: _591  and  _592
REMARK                            x       y       z     vdW  Elec       q    Type
REMARK                         _______ _______ _______ _____ _____    ______ ____
ROOT
ATOM      1  O   HOH     1      14.149  73.341  -4.800  0.00  0.00    +0.000 OA
ENDROOT
TORSDOF 0
REMARK  Name = ../refined-set-2016/3zxz/3zxz_pocket.pdb
REMARK  242 active torsions:
REMARK  status: ('A' for Active; 'I' for Inactive)
REMARK    1  A    between atoms: _1  and  _3
REMARK    2  A    between atoms: _3  and  _4
REMARK    3  A    between atoms: _3  and  _6
REMARK    4  A    between atoms: _9  and  _11
REMARK    5  A    between atoms: _11  and  _12
REMARK    6  A    between atoms: _11  and  _14
REMARK    7  A    between atoms: _14  and  _15
REMARK    8  A    between atoms: _18  and  _20
REMARK    9  A    between atoms: _20  and  _21
REMARK   10  A    between atoms: _23  and  _25
REMARK   11  A    between atoms: _25  and  _26
REMARK   12  A    between atoms: _25  and  _28
REMARK   13  A    between atoms: _28  and  _29
REMARK   14  A    between atoms: _29  and  _30
REMARK   15  A    between atoms: _30  and  _31
REMARK   16  A    between atoms: _40  and  _42
REMARK   17  A    between atoms: _42  and  _43
REMARK   18  A    between atoms: _45  and  _47
REMARK   19  A    between atoms: _47  and  _48
REMARK   20  A    between atoms: _47  and  _50
REMARK   21  A    between atoms: _52  and  _54
REMARK   22  A    between atoms: _54  and  _55
REMARK   23  A    between atoms: _54  and  _57
REMARK   24  A    between atoms: _60  and  _62
REMARK   25  A    between atoms: _62  and  _63
REMARK   26  A    between atoms: _62  and  _65
REMARK   27  A    between atoms: _65  and  _66
REMARK   28  A    between atoms: _71  and  _72
REMARK   29  A    between atoms: _74  and  _76
REMARK   30  A    between atoms: _76  and  _77
REMARK   31  A    between atoms: _76  and  _79
REMARK   32  A    between atoms: _79  and  _80
REMARK   33  A    between atoms: _85  and  _87
REMARK   34  A    between atoms: _87  and  _88
REMARK   35  A    between atoms: _90  and  _92
REMARK   36  A    between atoms: _92  and  _93
REMARK   37  A    between atoms: _92  and  _95
REMARK   38  A    between atoms: _95  and  _96
REMARK   39  A    between atoms: _101  and  _103
REMARK   40  A    between atoms: _103  and  _104
REMARK   41  A    between atoms: _103  and  _106
REMARK   42  A    between atoms: _108  and  _110
REMARK   43  A    between atoms: _110  and  _111
REMARK   44  A    between atoms: _114  and  _116
REMARK   45  A    between atoms: _116  and  _117
REMARK   46  A    between atoms: _116  and  _119
REMARK   47  A    between atoms: _122  and  _124
REMARK   48  A    between atoms: _124  and  _125
REMARK   49  A    between atoms: _124  and  _127
REMARK   50  A    between atoms: _127  and  _128
REMARK   51  A    between atoms: _128  and  _129
REMARK   52  A    between atoms: _129  and  _130
REMARK   53  A    between atoms: _130  and  _131
REMARK   54  A    between atoms: _135  and  _137
REMARK   55  A    between atoms: _137  and  _138
REMARK   56  A    between atoms: _137  and  _140
REMARK   57  A    between atoms: _140  and  _141
REMARK   58  A    between atoms: _143  and  _145
REMARK   59  A    between atoms: _145  and  _146
REMARK   60  A    between atoms: _145  and  _148
REMARK   61  A    between atoms: _148  and  _149
REMARK   62  A    between atoms: _149  and  _150
REMARK   63  A    between atoms: _152  and  _154
REMARK   64  A    between atoms: _154  and  _155
REMARK   65  A    between atoms: _154  and  _157
REMARK   66  A    between atoms: _157  and  _158
REMARK   67  A    between atoms: _161  and  _163
REMARK   68  A    between atoms: _163  and  _164
REMARK   69  A    between atoms: _163  and  _166
REMARK   70  A    between atoms: _166  and  _167
REMARK   71  A    between atoms: _169  and  _171
REMARK   72  A    between atoms: _171  and  _172
REMARK   73  A    between atoms: _171  and  _174
REMARK   74  A    between atoms: _177  and  _179
REMARK   75  A    between atoms: _179  and  _180
REMARK   76  A    between atoms: _179  and  _182
REMARK   77  A    between atoms: _185  and  _187
REMARK   78  A    between atoms: _187  and  _188
REMARK   79  A    between atoms: _187  and  _190
REMARK   80  A    between atoms: _190  and  _191
REMARK   81  A    between atoms: _195  and  _196
REMARK   82  A    between atoms: _201  and  _203
REMARK   83  A    between atoms: _203  and  _204
REMARK   84  A    between atoms: _203  and  _206
REMARK   85  A    between atoms: _206  and  _207
REMARK   86  A    between atoms: _212  and  _213
REMARK   87  A    between atoms: _215  and  _217
REMARK   88  A    between atoms: _217  and  _218
REMARK   89  A    between atoms: _217  and  _220
REMARK   90  A    between atoms: _220  and  _221
REMARK   91  A    between atoms: _221  and  _222
REMARK   92  A    between atoms: _224  and  _226
REMARK   93  A    between atoms: _226  and  _227
REMARK   94  A    between atoms: _226  and  _229
REMARK   95  A    between atoms: _229  and  _230
REMARK   96  A    between atoms: _230  and  _231
REMARK   97  A    between atoms: _231  and  _232
REMARK   98  A    between atoms: _232  and  _233
REMARK   99  A    between atoms: _237  and  _239
REMARK  100  A    between atoms: _239  and  _240
REMARK  101  A    between atoms: _239  and  _242
REMARK  102  A    between atoms: _242  and  _243
REMARK  103  A    between atoms: _248  and  _250
REMARK  104  A    between atoms: _250  and  _251
REMARK  105  A    between atoms: _253  and  _255
REMARK  106  A    between atoms: _255  and  _256
REMARK  107  A    between atoms: _255  and  _258
REMARK  108  A    between atoms: _258  and  _259
REMARK  109  A    between atoms: _262  and  _264
REMARK  110  A    between atoms: _264  and  _265
REMARK  111  A    between atoms: _264  and  _267
REMARK  112  A    between atoms: _267  and  _268
REMARK  113  A    between atoms: _271  and  _273
REMARK  114  A    between atoms: _273  and  _274
REMARK  115  A    between atoms: _273  and  _276
REMARK  116  A    between atoms: _276  and  _277
REMARK  117  A    between atoms: _277  and  _278
REMARK  118  A    between atoms: _278  and  _279
REMARK  119  A    between atoms: _288  and  _290
REMARK  120  A    between atoms: _290  and  _291
REMARK  121  A    between atoms: _290  and  _293
REMARK  122  A    between atoms: _293  and  _294
REMARK  123  A    between atoms: _299  and  _301
REMARK  124  A    between atoms: _301  and  _302
REMARK  125  A    between atoms: _301  and  _304
REMARK  126  A    between atoms: _304  and  _305
REMARK  127  A    between atoms: _311  and  _313
REMARK  128  A    between atoms: _313  and  _314
REMARK  129  A    between atoms: _313  and  _316
REMARK  130  A    between atoms: _316  and  _317
REMARK  131  A    between atoms: _317  and  _318
REMARK  132  A    between atoms: _318  and  _319
REMARK  133  A    between atoms: _328  and  _330
REMARK  134  A    between atoms: _330  and  _331
REMARK  135  A    between atoms: _330  and  _333
REMARK  136  A    between atoms: _333  and  _334
REMARK  137  A    between atoms: _339  and  _341
REMARK  138  A    between atoms: _341  and  _342
REMARK  139  A    between atoms: _341  and  _344
REMARK  140  A    between atoms: _344  and  _345
REMARK  141  A    between atoms: _348  and  _350
REMARK  142  A    between atoms: _350  and  _351
REMARK  143  A    between atoms: _354  and  _356
REMARK  144  A    between atoms: _356  and  _357
REMARK  145  A    between atoms: _360  and  _362
REMARK  146  A    between atoms: _362  and  _363
REMARK  147  A    between atoms: _362  and  _365
REMARK  148  A    between atoms: _365  and  _366
REMARK  149  A    between atoms: _366  and  _367
REMARK  150  A    between atoms: _367  and  _368
REMARK  151  A    between atoms: _377  and  _379
REMARK  152  A    between atoms: _379  and  _380
REMARK  153  A    between atoms: _379  and  _382
REMARK  154  A    between atoms: _382  and  _383
REMARK  155  A    between atoms: _388  and  _390
REMARK  156  A    between atoms: _390  and  _391
REMARK  157  A    between atoms: _390  and  _393
REMARK  158  A    between atoms: _395  and  _397
REMARK  159  A    between atoms: _397  and  _398
REMARK  160  A    between atoms: _397  and  _400
REMARK  161  A    between atoms: _400  and  _401
REMARK  162  A    between atoms: _401  and  _402
REMARK  163  A    between atoms: _404  and  _406
REMARK  164  A    between atoms: _406  and  _407
REMARK  165  A    between atoms: _406  and  _409
REMARK  166  A    between atoms: _409  and  _410
REMARK  167  A    between atoms: _413  and  _415
REMARK  168  A    between atoms: _415  and  _416
REMARK  169  A    between atoms: _415  and  _418
REMARK  170  A    between atoms: _418  and  _419
REMARK  171  A    between atoms: _422  and  _424
REMARK  172  A    between atoms: _424  and  _425
REMARK  173  A    between atoms: _424  and  _427
REMARK  174  A    between atoms: _427  and  _428
REMARK  175  A    between atoms: _428  and  _429
REMARK  176  A    between atoms: _429  and  _430
REMARK  177  A    between atoms: _430  and  _431
REMARK  178  A    between atoms: _435  and  _437
REMARK  179  A    between atoms: _437  and  _438
REMARK  180  A    between atoms: _437  and  _440
REMARK  181  A    between atoms: _443  and  _445
REMARK  182  A    between atoms: _445  and  _446
REMARK  183  A    between atoms: _449  and  _451
REMARK  184  A    between atoms: _451  and  _452
REMARK  185  A    between atoms: _451  and  _454
REMARK  186  A    between atoms: _454  and  _455
REMARK  187  A    between atoms: _458  and  _460
REMARK  188  A    between atoms: _460  and  _461
REMARK  189  A    between atoms: _460  and  _463
REMARK  190  A    between atoms: _463  and  _464
REMARK  191  A    between atoms: _470  and  _472
REMARK  192  A    between atoms: _472  and  _473
REMARK  193  A    between atoms: _472  and  _475
REMARK  194  A    between atoms: _475  and  _476
REMARK  195  A    between atoms: _479  and  _481
REMARK  196  A    between atoms: _481  and  _482
REMARK  197  A    between atoms: _485  and  _487
REMARK  198  A    between atoms: _487  and  _488
REMARK  199  A    between atoms: _487  and  _490
REMARK  200  A    between atoms: _490  and  _491
REMARK  201  A    between atoms: _491  and  _492
REMARK  202  A    between atoms: _492  and  _493
REMARK  203  A    between atoms: _502  and  _504
REMARK  204  A    between atoms: _504  and  _505
REMARK  205  A    between atoms: _504  and  _507
REMARK  206  A    between atoms: _507  and  _508
REMARK  207  A    between atoms: _511  and  _513
REMARK  208  A    between atoms: _513  and  _514
REMARK  209  A    between atoms: _513  and  _516
REMARK  210  A    between atoms: _516  and  _517
REMARK  211  A    between atoms: _517  and  _518
REMARK  212  A    between atoms: _520  and  _522
REMARK  213  A    between atoms: _522  and  _523
REMARK  214  A    between atoms: _522  and  _525
REMARK  215  A    between atoms: _525  and  _526
REMARK  216  A    between atoms: _531  and  _532
REMARK  217  A    between atoms: _534  and  _536
REMARK  218  A    between atoms: _536  and  _537
REMARK  219  A    between atoms: _536  and  _539
REMARK  220  A    between atoms: _539  and  _540
REMARK  221  A    between atoms: _543  and  _545
REMARK  222  A    between atoms: _545  and  _546
REMARK  223  A    between atoms: _545  and  _548
REMARK  224  A    between atoms: _548  and  _549
REMARK  225  A    between atoms: _549  and  _550
REMARK  226  A    between atoms: _550  and  _551
REMARK  227  A    between atoms: _551  and  _552
REMARK  228  A    between atoms: _556  and  _558
REMARK  229  A    between atoms: _558  and  _559
REMARK  230  A    between atoms: _558  and  _561
REMARK  231  A    between atoms: _561  and  _562
REMARK  232  A    between atoms: _562  and  _563
REMARK  233  A    between atoms: _566  and  _568
REMARK  234  A    between atoms: _568  and  _569
REMARK  235  A    between atoms: _568  and  _571
REMARK  236  A    between atoms: _571  and  _572
REMARK  237  A    between atoms: _577  and  _578
REMARK  238  A    between atoms: _580  and  _582
REMARK  239  A    between atoms: _582  and  _583
REMARK  240  A    between atoms: _582  and  _585
REMARK  241  A    between atoms: _585  and  _586
REMARK  242  A    between atoms: _591  and  _592
REMARK                            x       y       z     vdW  Elec       q    Type
REMARK                         _______ _______ _______ _____ _____    ______ ____
ROOT
ATOM      1  O   HOH     1      15.109  75.487  -0.255  0.00  0.00    +0.000 OA
ENDROOT
TORSDOF 0
REMARK  Name = ../refined-set-2016/3zxz/3zxz_pocket.pdb
REMARK  242 active torsions:
REMARK  status: ('A' for Active; 'I' for Inactive)
REMARK    1  A    between atoms: _1  and  _3
REMARK    2  A    between atoms: _3  and  _4
REMARK    3  A    between atoms: _3  and  _6
REMARK    4  A    between atoms: _9  and  _11
REMARK    5  A    between atoms: _11  and  _12
REMARK    6  A    between atoms: _11  and  _14
REMARK    7  A    between atoms: _14  and  _15
REMARK    8  A    between atoms: _18  and  _20
REMARK    9  A    between atoms: _20  and  _21
REMARK   10  A    between atoms: _23  and  _25
REMARK   11  A    between atoms: _25  and  _26
REMARK   12  A    between atoms: _25  and  _28
REMARK   13  A    between atoms: _28  and  _29
REMARK   14  A    between atoms: _29  and  _30
REMARK   15  A    between atoms: _30  and  _31
REMARK   16  A    between atoms: _40  and  _42
REMARK   17  A    between atoms: _42  and  _43
REMARK   18  A    between atoms: _45  and  _47
REMARK   19  A    between atoms: _47  and  _48
REMARK   20  A    between atoms: _47  and  _50
REMARK   21  A    between atoms: _52  and  _54
REMARK   22  A    between atoms: _54  and  _55
REMARK   23  A    between atoms: _54  and  _57
REMARK   24  A    between atoms: _60  and  _62
REMARK   25  A    between atoms: _62  and  _63
REMARK   26  A    between atoms: _62  and  _65
REMARK   27  A    between atoms: _65  and  _66
REMARK   28  A    between atoms: _71  and  _72
REMARK   29  A    between atoms: _74  and  _76
REMARK   30  A    between atoms: _76  and  _77
REMARK   31  A    between atoms: _76  and  _79
REMARK   32  A    between atoms: _79  and  _80
REMARK   33  A    between atoms: _85  and  _87
REMARK   34  A    between atoms: _87  and  _88
REMARK   35  A    between atoms: _90  and  _92
REMARK   36  A    between atoms: _92  and  _93
REMARK   37  A    between atoms: _92  and  _95
REMARK   38  A    between atoms: _95  and  _96
REMARK   39  A    between atoms: _101  and  _103
REMARK   40  A    between atoms: _103  and  _104
REMARK   41  A    between atoms: _103  and  _106
REMARK   42  A    between atoms: _108  and  _110
REMARK   43  A    between atoms: _110  and  _111
REMARK   44  A    between atoms: _114  and  _116
REMARK   45  A    between atoms: _116  and  _117
REMARK   46  A    between atoms: _116  and  _119
REMARK   47  A    between atoms: _122  and  _124
REMARK   48  A    between atoms: _124  and  _125
REMARK   49  A    between atoms: _124  and  _127
REMARK   50  A    between atoms: _127  and  _128
REMARK   51  A    between atoms: _128  and  _129
REMARK   52  A    between atoms: _129  and  _130
REMARK   53  A    between atoms: _130  and  _131
REMARK   54  A    between atoms: _135  and  _137
REMARK   55  A    between atoms: _137  and  _138
REMARK   56  A    between atoms: _137  and  _140
REMARK   57  A    between atoms: _140  and  _141
REMARK   58  A    between atoms: _143  and  _145
REMARK   59  A    between atoms: _145  and  _146
REMARK   60  A    between atoms: _145  and  _148
REMARK   61  A    between atoms: _148  and  _149
REMARK   62  A    between atoms: _149  and  _150
REMARK   63  A    between atoms: _152  and  _154
REMARK   64  A    between atoms: _154  and  _155
REMARK   65  A    between atoms: _154  and  _157
REMARK   66  A    between atoms: _157  and  _158
REMARK   67  A    between atoms: _161  and  _163
REMARK   68  A    between atoms: _163  and  _164
REMARK   69  A    between atoms: _163  and  _166
REMARK   70  A    between atoms: _166  and  _167
REMARK   71  A    between atoms: _169  and  _171
REMARK   72  A    between atoms: _171  and  _172
REMARK   73  A    between atoms: _171  and  _174
REMARK   74  A    between atoms: _177  and  _179
REMARK   75  A    between atoms: _179  and  _180
REMARK   76  A    between atoms: _179  and  _182
REMARK   77  A    between atoms: _185  and  _187
REMARK   78  A    between atoms: _187  and  _188
REMARK   79  A    between atoms: _187  and  _190
REMARK   80  A    between atoms: _190  and  _191
REMARK   81  A    between atoms: _195  and  _196
REMARK   82  A    between atoms: _201  and  _203
REMARK   83  A    between atoms: _203  and  _204
REMARK   84  A    between atoms: _203  and  _206
REMARK   85  A    between atoms: _206  and  _207
REMARK   86  A    between atoms: _212  and  _213
REMARK   87  A    between atoms: _215  and  _217
REMARK   88  A    between atoms: _217  and  _218
REMARK   89  A    between atoms: _217  and  _220
REMARK   90  A    between atoms: _220  and  _221
REMARK   91  A    between atoms: _221  and  _222
REMARK   92  A    between atoms: _224  and  _226
REMARK   93  A    between atoms: _226  and  _227
REMARK   94  A    between atoms: _226  and  _229
REMARK   95  A    between atoms: _229  and  _230
REMARK   96  A    between atoms: _230  and  _231
REMARK   97  A    between atoms: _231  and  _232
REMARK   98  A    between atoms: _232  and  _233
REMARK   99  A    between atoms: _237  and  _239
REMARK  100  A    between atoms: _239  and  _240
REMARK  101  A    between atoms: _239  and  _242
REMARK  102  A    between atoms: _242  and  _243
REMARK  103  A    between atoms: _248  and  _250
REMARK  104  A    between atoms: _250  and  _251
REMARK  105  A    between atoms: _253  and  _255
REMARK  106  A    between atoms: _255  and  _256
REMARK  107  A    between atoms: _255  and  _258
REMARK  108  A    between atoms: _258  and  _259
REMARK  109  A    between atoms: _262  and  _264
REMARK  110  A    between atoms: _264  and  _265
REMARK  111  A    between atoms: _264  and  _267
REMARK  112  A    between atoms: _267  and  _268
REMARK  113  A    between atoms: _271  and  _273
REMARK  114  A    between atoms: _273  and  _274
REMARK  115  A    between atoms: _273  and  _276
REMARK  116  A    between atoms: _276  and  _277
REMARK  117  A    between atoms: _277  and  _278
REMARK  118  A    between atoms: _278  and  _279
REMARK  119  A    between atoms: _288  and  _290
REMARK  120  A    between atoms: _290  and  _291
REMARK  121  A    between atoms: _290  and  _293
REMARK  122  A    between atoms: _293  and  _294
REMARK  123  A    between atoms: _299  and  _301
REMARK  124  A    between atoms: _301  and  _302
REMARK  125  A    between atoms: _301  and  _304
REMARK  126  A    between atoms: _304  and  _305
REMARK  127  A    between atoms: _311  and  _313
REMARK  128  A    between atoms: _313  and  _314
REMARK  129  A    between atoms: _313  and  _316
REMARK  130  A    between atoms: _316  and  _317
REMARK  131  A    between atoms: _317  and  _318
REMARK  132  A    between atoms: _318  and  _319
REMARK  133  A    between atoms: _328  and  _330
REMARK  134  A    between atoms: _330  and  _331
REMARK  135  A    between atoms: _330  and  _333
REMARK  136  A    between atoms: _333  and  _334
REMARK  137  A    between atoms: _339  and  _341
REMARK  138  A    between atoms: _341  and  _342
REMARK  139  A    between atoms: _341  and  _344
REMARK  140  A    between atoms: _344  and  _345
REMARK  141  A    between atoms: _348  and  _350
REMARK  142  A    between atoms: _350  and  _351
REMARK  143  A    between atoms: _354  and  _356
REMARK  144  A    between atoms: _356  and  _357
REMARK  145  A    between atoms: _360  and  _362
REMARK  146  A    between atoms: _362  and  _363
REMARK  147  A    between atoms: _362  and  _365
REMARK  148  A    between atoms: _365  and  _366
REMARK  149  A    between atoms: _366  and  _367
REMARK  150  A    between atoms: _367  and  _368
REMARK  151  A    between atoms: _377  and  _379
REMARK  152  A    between atoms: _379  and  _380
REMARK  153  A    between atoms: _379  and  _382
REMARK  154  A    between atoms: _382  and  _383
REMARK  155  A    between atoms: _388  and  _390
REMARK  156  A    between atoms: _390  and  _391
REMARK  157  A    between atoms: _390  and  _393
REMARK  158  A    between atoms: _395  and  _397
REMARK  159  A    between atoms: _397  and  _398
REMARK  160  A    between atoms: _397  and  _400
REMARK  161  A    between atoms: _400  and  _401
REMARK  162  A    between atoms: _401  and  _402
REMARK  163  A    between atoms: _404  and  _406
REMARK  164  A    between atoms: _406  and  _407
REMARK  165  A    between atoms: _406  and  _409
REMARK  166  A    between atoms: _409  and  _410
REMARK  167  A    between atoms: _413  and  _415
REMARK  168  A    between atoms: _415  and  _416
REMARK  169  A    between atoms: _415  and  _418
REMARK  170  A    between atoms: _418  and  _419
REMARK  171  A    between atoms: _422  and  _424
REMARK  172  A    between atoms: _424  and  _425
REMARK  173  A    between atoms: _424  and  _427
REMARK  174  A    between atoms: _427  and  _428
REMARK  175  A    between atoms: _428  and  _429
REMARK  176  A    between atoms: _429  and  _430
REMARK  177  A    between atoms: _430  and  _431
REMARK  178  A    between atoms: _435  and  _437
REMARK  179  A    between atoms: _437  and  _438
REMARK  180  A    between atoms: _437  and  _440
REMARK  181  A    between atoms: _443  and  _445
REMARK  182  A    between atoms: _445  and  _446
REMARK  183  A    between atoms: _449  and  _451
REMARK  184  A    between atoms: _451  and  _452
REMARK  185  A    between atoms: _451  and  _454
REMARK  186  A    between atoms: _454  and  _455
REMARK  187  A    between atoms: _458  and  _460
REMARK  188  A    between atoms: _460  and  _461
REMARK  189  A    between atoms: _460  and  _463
REMARK  190  A    between atoms: _463  and  _464
REMARK  191  A    between atoms: _470  and  _472
REMARK  192  A    between atoms: _472  and  _473
REMARK  193  A    between atoms: _472  and  _475
REMARK  194  A    between atoms: _475  and  _476
REMARK  195  A    between atoms: _479  and  _481
REMARK  196  A    between atoms: _481  and  _482
REMARK  197  A    between atoms: _485  and  _487
REMARK  198  A    between atoms: _487  and  _488
REMARK  199  A    between atoms: _487  and  _490
REMARK  200  A    between atoms: _490  and  _491
REMARK  201  A    between atoms: _491  and  _492
REMARK  202  A    between atoms: _492  and  _493
REMARK  203  A    between atoms: _502  and  _504
REMARK  204  A    between atoms: _504  and  _505
REMARK  205  A    between atoms: _504  and  _507
REMARK  206  A    between atoms: _507  and  _508
REMARK  207  A    between atoms: _511  and  _513
REMARK  208  A    between atoms: _513  and  _514
REMARK  209  A    between atoms: _513  and  _516
REMARK  210  A    between atoms: _516  and  _517
REMARK  211  A    between atoms: _517  and  _518
REMARK  212  A    between atoms: _520  and  _522
REMARK  213  A    between atoms: _522  and  _523
REMARK  214  A    between atoms: _522  and  _525
REMARK  215  A    between atoms: _525  and  _526
REMARK  216  A    between atoms: _531  and  _532
REMARK  217  A    between atoms: _534  and  _536
REMARK  218  A    between atoms: _536  and  _537
REMARK  219  A    between atoms: _536  and  _539
REMARK  220  A    between atoms: _539  and  _540
REMARK  221  A    between atoms: _543  and  _545
REMARK  222  A    between atoms: _545  and  _546
REMARK  223  A    between atoms: _545  and  _548
REMARK  224  A    between atoms: _548  and  _549
REMARK  225  A    between atoms: _549  and  _550
REMARK  226  A    between atoms: _550  and  _551
REMARK  227  A    between atoms: _551  and  _552
REMARK  228  A    between atoms: _556  and  _558
REMARK  229  A    between atoms: _558  and  _559
REMARK  230  A    between atoms: _558  and  _561
REMARK  231  A    between atoms: _561  and  _562
REMARK  232  A    between atoms: _562  and  _563
REMARK  233  A    between atoms: _566  and  _568
REMARK  234  A    between atoms: _568  and  _569
REMARK  235  A    between atoms: _568  and  _571
REMARK  236  A    between atoms: _571  and  _572
REMARK  237  A    between atoms: _577  and  _578
REMARK  238  A    between atoms: _580  and  _582
REMARK  239  A    between atoms: _582  and  _583
REMARK  240  A    between atoms: _582  and  _585
REMARK  241  A    between atoms: _585  and  _586
REMARK  242  A    between atoms: _591  and  _592
REMARK                            x       y       z     vdW  Elec       q    Type
REMARK                         _______ _______ _______ _____ _____    ______ ____
ROOT
ATOM      1  O   HOH     1      21.083  74.021  -5.231  0.00  0.00    +0.000 OA
ENDROOT
TORSDOF 0
REMARK  Name = ../refined-set-2016/3zxz/3zxz_pocket.pdb
REMARK  242 active torsions:
REMARK  status: ('A' for Active; 'I' for Inactive)
REMARK    1  A    between atoms: _1  and  _3
REMARK    2  A    between atoms: _3  and  _4
REMARK    3  A    between atoms: _3  and  _6
REMARK    4  A    between atoms: _9  and  _11
REMARK    5  A    between atoms: _11  and  _12
REMARK    6  A    between atoms: _11  and  _14
REMARK    7  A    between atoms: _14  and  _15
REMARK    8  A    between atoms: _18  and  _20
REMARK    9  A    between atoms: _20  and  _21
REMARK   10  A    between atoms: _23  and  _25
REMARK   11  A    between atoms: _25  and  _26
REMARK   12  A    between atoms: _25  and  _28
REMARK   13  A    between atoms: _28  and  _29
REMARK   14  A    between atoms: _29  and  _30
REMARK   15  A    between atoms: _30  and  _31
REMARK   16  A    between atoms: _40  and  _42
REMARK   17  A    between atoms: _42  and  _43
REMARK   18  A    between atoms: _45  and  _47
REMARK   19  A    between atoms: _47  and  _48
REMARK   20  A    between atoms: _47  and  _50
REMARK   21  A    between atoms: _52  and  _54
REMARK   22  A    between atoms: _54  and  _55
REMARK   23  A    between atoms: _54  and  _57
REMARK   24  A    between atoms: _60  and  _62
REMARK   25  A    between atoms: _62  and  _63
REMARK   26  A    between atoms: _62  and  _65
REMARK   27  A    between atoms: _65  and  _66
REMARK   28  A    between atoms: _71  and  _72
REMARK   29  A    between atoms: _74  and  _76
REMARK   30  A    between atoms: _76  and  _77
REMARK   31  A    between atoms: _76  and  _79
REMARK   32  A    between atoms: _79  and  _80
REMARK   33  A    between atoms: _85  and  _87
REMARK   34  A    between atoms: _87  and  _88
REMARK   35  A    between atoms: _90  and  _92
REMARK   36  A    between atoms: _92  and  _93
REMARK   37  A    between atoms: _92  and  _95
REMARK   38  A    between atoms: _95  and  _96
REMARK   39  A    between atoms: _101  and  _103
REMARK   40  A    between atoms: _103  and  _104
REMARK   41  A    between atoms: _103  and  _106
REMARK   42  A    between atoms: _108  and  _110
REMARK   43  A    between atoms: _110  and  _111
REMARK   44  A    between atoms: _114  and  _116
REMARK   45  A    between atoms: _116  and  _117
REMARK   46  A    between atoms: _116  and  _119
REMARK   47  A    between atoms: _122  and  _124
REMARK   48  A    between atoms: _124  and  _125
REMARK   49  A    between atoms: _124  and  _127
REMARK   50  A    between atoms: _127  and  _128
REMARK   51  A    between atoms: _128  and  _129
REMARK   52  A    between atoms: _129  and  _130
REMARK   53  A    between atoms: _130  and  _131
REMARK   54  A    between atoms: _135  and  _137
REMARK   55  A    between atoms: _137  and  _138
REMARK   56  A    between atoms: _137  and  _140
REMARK   57  A    between atoms: _140  and  _141
REMARK   58  A    between atoms: _143  and  _145
REMARK   59  A    between atoms: _145  and  _146
REMARK   60  A    between atoms: _145  and  _148
REMARK   61  A    between atoms: _148  and  _149
REMARK   62  A    between atoms: _149  and  _150
REMARK   63  A    between atoms: _152  and  _154
REMARK   64  A    between atoms: _154  and  _155
REMARK   65  A    between atoms: _154  and  _157
REMARK   66  A    between atoms: _157  and  _158
REMARK   67  A    between atoms: _161  and  _163
REMARK   68  A    between atoms: _163  and  _164
REMARK   69  A    between atoms: _163  and  _166
REMARK   70  A    between atoms: _166  and  _167
REMARK   71  A    between atoms: _169  and  _171
REMARK   72  A    between atoms: _171  and  _172
REMARK   73  A    between atoms: _171  and  _174
REMARK   74  A    between atoms: _177  and  _179
REMARK   75  A    between atoms: _179  and  _180
REMARK   76  A    between atoms: _179  and  _182
REMARK   77  A    between atoms: _185  and  _187
REMARK   78  A    between atoms: _187  and  _188
REMARK   79  A    between atoms: _187  and  _190
REMARK   80  A    between atoms: _190  and  _191
REMARK   81  A    between atoms: _195  and  _196
REMARK   82  A    between atoms: _201  and  _203
REMARK   83  A    between atoms: _203  and  _204
REMARK   84  A    between atoms: _203  and  _206
REMARK   85  A    between atoms: _206  and  _207
REMARK   86  A    between atoms: _212  and  _213
REMARK   87  A    between atoms: _215  and  _217
REMARK   88  A    between atoms: _217  and  _218
REMARK   89  A    between atoms: _217  and  _220
REMARK   90  A    between atoms: _220  and  _221
REMARK   91  A    between atoms: _221  and  _222
REMARK   92  A    between atoms: _224  and  _226
REMARK   93  A    between atoms: _226  and  _227
REMARK   94  A    between atoms: _226  and  _229
REMARK   95  A    between atoms: _229  and  _230
REMARK   96  A    between atoms: _230  and  _231
REMARK   97  A    between atoms: _231  and  _232
REMARK   98  A    between atoms: _232  and  _233
REMARK   99  A    between atoms: _237  and  _239
REMARK  100  A    between atoms: _239  and  _240
REMARK  101  A    between atoms: _239  and  _242
REMARK  102  A    between atoms: _242  and  _243
REMARK  103  A    between atoms: _248  and  _250
REMARK  104  A    between atoms: _250  and  _251
REMARK  105  A    between atoms: _253  and  _255
REMARK  106  A    between atoms: _255  and  _256
REMARK  107  A    between atoms: _255  and  _258
REMARK  108  A    between atoms: _258  and  _259
REMARK  109  A    between atoms: _262  and  _264
REMARK  110  A    between atoms: _264  and  _265
REMARK  111  A    between atoms: _264  and  _267
REMARK  112  A    between atoms: _267  and  _268
REMARK  113  A    between atoms: _271  and  _273
REMARK  114  A    between atoms: _273  and  _274
REMARK  115  A    between atoms: _273  and  _276
REMARK  116  A    between atoms: _276  and  _277
REMARK  117  A    between atoms: _277  and  _278
REMARK  118  A    between atoms: _278  and  _279
REMARK  119  A    between atoms: _288  and  _290
REMARK  120  A    between atoms: _290  and  _291
REMARK  121  A    between atoms: _290  and  _293
REMARK  122  A    between atoms: _293  and  _294
REMARK  123  A    between atoms: _299  and  _301
REMARK  124  A    between atoms: _301  and  _302
REMARK  125  A    between atoms: _301  and  _304
REMARK  126  A    between atoms: _304  and  _305
REMARK  127  A    between atoms: _311  and  _313
REMARK  128  A    between atoms: _313  and  _314
REMARK  129  A    between atoms: _313  and  _316
REMARK  130  A    between atoms: _316  and  _317
REMARK  131  A    between atoms: _317  and  _318
REMARK  132  A    between atoms: _318  and  _319
REMARK  133  A    between atoms: _328  and  _330
REMARK  134  A    between atoms: _330  and  _331
REMARK  135  A    between atoms: _330  and  _333
REMARK  136  A    between atoms: _333  and  _334
REMARK  137  A    between atoms: _339  and  _341
REMARK  138  A    between atoms: _341  and  _342
REMARK  139  A    between atoms: _341  and  _344
REMARK  140  A    between atoms: _344  and  _345
REMARK  141  A    between atoms: _348  and  _350
REMARK  142  A    between atoms: _350  and  _351
REMARK  143  A    between atoms: _354  and  _356
REMARK  144  A    between atoms: _356  and  _357
REMARK  145  A    between atoms: _360  and  _362
REMARK  146  A    between atoms: _362  and  _363
REMARK  147  A    between atoms: _362  and  _365
REMARK  148  A    between atoms: _365  and  _366
REMARK  149  A    between atoms: _366  and  _367
REMARK  150  A    between atoms: _367  and  _368
REMARK  151  A    between atoms: _377  and  _379
REMARK  152  A    between atoms: _379  and  _380
REMARK  153  A    between atoms: _379  and  _382
REMARK  154  A    between atoms: _382  and  _383
REMARK  155  A    between atoms: _388  and  _390
REMARK  156  A    between atoms: _390  and  _391
REMARK  157  A    between atoms: _390  and  _393
REMARK  158  A    between atoms: _395  and  _397
REMARK  159  A    between atoms: _397  and  _398
REMARK  160  A    between atoms: _397  and  _400
REMARK  161  A    between atoms: _400  and  _401
REMARK  162  A    between atoms: _401  and  _402
REMARK  163  A    between atoms: _404  and  _406
REMARK  164  A    between atoms: _406  and  _407
REMARK  165  A    between atoms: _406  and  _409
REMARK  166  A    between atoms: _409  and  _410
REMARK  167  A    between atoms: _413  and  _415
REMARK  168  A    between atoms: _415  and  _416
REMARK  169  A    between atoms: _415  and  _418
REMARK  170  A    between atoms: _418  and  _419
REMARK  171  A    between atoms: _422  and  _424
REMARK  172  A    between atoms: _424  and  _425
REMARK  173  A    between atoms: _424  and  _427
REMARK  174  A    between atoms: _427  and  _428
REMARK  175  A    between atoms: _428  and  _429
REMARK  176  A    between atoms: _429  and  _430
REMARK  177  A    between atoms: _430  and  _431
REMARK  178  A    between atoms: _435  and  _437
REMARK  179  A    between atoms: _437  and  _438
REMARK  180  A    between atoms: _437  and  _440
REMARK  181  A    between atoms: _443  and  _445
REMARK  182  A    between atoms: _445  and  _446
REMARK  183  A    between atoms: _449  and  _451
REMARK  184  A    between atoms: _451  and  _452
REMARK  185  A    between atoms: _451  and  _454
REMARK  186  A    between atoms: _454  and  _455
REMARK  187  A    between atoms: _458  and  _460
REMARK  188  A    between atoms: _460  and  _461
REMARK  189  A    between atoms: _460  and  _463
REMARK  190  A    between atoms: _463  and  _464
REMARK  191  A    between atoms: _470  and  _472
REMARK  192  A    between atoms: _472  and  _473
REMARK  193  A    between atoms: _472  and  _475
REMARK  194  A    between atoms: _475  and  _476
REMARK  195  A    between atoms: _479  and  _481
REMARK  196  A    between atoms: _481  and  _482
REMARK  197  A    between atoms: _485  and  _487
REMARK  198  A    between atoms: _487  and  _488
REMARK  199  A    between atoms: _487  and  _490
REMARK  200  A    between atoms: _490  and  _491
REMARK  201  A    between atoms: _491  and  _492
REMARK  202  A    between atoms: _492  and  _493
REMARK  203  A    between atoms: _502  and  _504
REMARK  204  A    between atoms: _504  and  _505
REMARK  205  A    between atoms: _504  and  _507
REMARK  206  A    between atoms: _507  and  _508
REMARK  207  A    between atoms: _511  and  _513
REMARK  208  A    between atoms: _513  and  _514
REMARK  209  A    between atoms: _513  and  _516
REMARK  210  A    between atoms: _516  and  _517
REMARK  211  A    between atoms: _517  and  _518
REMARK  212  A    between atoms: _520  and  _522
REMARK  213  A    between atoms: _522  and  _523
REMARK  214  A    between atoms: _522  and  _525
REMARK  215  A    between atoms: _525  and  _526
REMARK  216  A    between atoms: _531  and  _532
REMARK  217  A    between atoms: _534  and  _536
REMARK  218  A    between atoms: _536  and  _537
REMARK  219  A    between atoms: _536  and  _539
REMARK  220  A    between atoms: _539  and  _540
REMARK  221  A    between atoms: _543  and  _545
REMARK  222  A    between atoms: _545  and  _546
REMARK  223  A    between atoms: _545  and  _548
REMARK  224  A    between atoms: _548  and  _549
REMARK  225  A    between atoms: _549  and  _550
REMARK  226  A    between atoms: _550  and  _551
REMARK  227  A    between atoms: _551  and  _552
REMARK  228  A    between atoms: _556  and  _558
REMARK  229  A    between atoms: _558  and  _559
REMARK  230  A    between atoms: _558  and  _561
REMARK  231  A    between atoms: _561  and  _562
REMARK  232  A    between atoms: _562  and  _563
REMARK  233  A    between atoms: _566  and  _568
REMARK  234  A    between atoms: _568  and  _569
REMARK  235  A    between atoms: _568  and  _571
REMARK  236  A    between atoms: _571  and  _572
REMARK  237  A    between atoms: _577  and  _578
REMARK  238  A    between atoms: _580  and  _582
REMARK  239  A    between atoms: _582  and  _583
REMARK  240  A    between atoms: _582  and  _585
REMARK  241  A    between atoms: _585  and  _586
REMARK  242  A    between atoms: _591  and  _592
REMARK                            x       y       z     vdW  Elec       q    Type
REMARK                         _______ _______ _______ _____ _____    ______ ____
ROOT
ATOM      1  O   HOH     1      18.047  78.812  -3.406  0.00  0.00    +0.000 OA
ENDROOT
TORSDOF 0
REMARK  Name = ../refined-set-2016/3zxz/3zxz_pocket.pdb
REMARK  242 active torsions:
REMARK  status: ('A' for Active; 'I' for Inactive)
REMARK    1  A    between atoms: _1  and  _3
REMARK    2  A    between atoms: _3  and  _4
REMARK    3  A    between atoms: _3  and  _6
REMARK    4  A    between atoms: _9  and  _11
REMARK    5  A    between atoms: _11  and  _12
REMARK    6  A    between atoms: _11  and  _14
REMARK    7  A    between atoms: _14  and  _15
REMARK    8  A    between atoms: _18  and  _20
REMARK    9  A    between atoms: _20  and  _21
REMARK   10  A    between atoms: _23  and  _25
REMARK   11  A    between atoms: _25  and  _26
REMARK   12  A    between atoms: _25  and  _28
REMARK   13  A    between atoms: _28  and  _29
REMARK   14  A    between atoms: _29  and  _30
REMARK   15  A    between atoms: _30  and  _31
REMARK   16  A    between atoms: _40  and  _42
REMARK   17  A    between atoms: _42  and  _43
REMARK   18  A    between atoms: _45  and  _47
REMARK   19  A    between atoms: _47  and  _48
REMARK   20  A    between atoms: _47  and  _50
REMARK   21  A    between atoms: _52  and  _54
REMARK   22  A    between atoms: _54  and  _55
REMARK   23  A    between atoms: _54  and  _57
REMARK   24  A    between atoms: _60  and  _62
REMARK   25  A    between atoms: _62  and  _63
REMARK   26  A    between atoms: _62  and  _65
REMARK   27  A    between atoms: _65  and  _66
REMARK   28  A    between atoms: _71  and  _72
REMARK   29  A    between atoms: _74  and  _76
REMARK   30  A    between atoms: _76  and  _77
REMARK   31  A    between atoms: _76  and  _79
REMARK   32  A    between atoms: _79  and  _80
REMARK   33  A    between atoms: _85  and  _87
REMARK   34  A    between atoms: _87  and  _88
REMARK   35  A    between atoms: _90  and  _92
REMARK   36  A    between atoms: _92  and  _93
REMARK   37  A    between atoms: _92  and  _95
REMARK   38  A    between atoms: _95  and  _96
REMARK   39  A    between atoms: _101  and  _103
REMARK   40  A    between atoms: _103  and  _104
REMARK   41  A    between atoms: _103  and  _106
REMARK   42  A    between atoms: _108  and  _110
REMARK   43  A    between atoms: _110  and  _111
REMARK   44  A    between atoms: _114  and  _116
REMARK   45  A    between atoms: _116  and  _117
REMARK   46  A    between atoms: _116  and  _119
REMARK   47  A    between atoms: _122  and  _124
REMARK   48  A    between atoms: _124  and  _125
REMARK   49  A    between atoms: _124  and  _127
REMARK   50  A    between atoms: _127  and  _128
REMARK   51  A    between atoms: _128  and  _129
REMARK   52  A    between atoms: _129  and  _130
REMARK   53  A    between atoms: _130  and  _131
REMARK   54  A    between atoms: _135  and  _137
REMARK   55  A    between atoms: _137  and  _138
REMARK   56  A    between atoms: _137  and  _140
REMARK   57  A    between atoms: _140  and  _141
REMARK   58  A    between atoms: _143  and  _145
REMARK   59  A    between atoms: _145  and  _146
REMARK   60  A    between atoms: _145  and  _148
REMARK   61  A    between atoms: _148  and  _149
REMARK   62  A    between atoms: _149  and  _150
REMARK   63  A    between atoms: _152  and  _154
REMARK   64  A    between atoms: _154  and  _155
REMARK   65  A    between atoms: _154  and  _157
REMARK   66  A    between atoms: _157  and  _158
REMARK   67  A    between atoms: _161  and  _163
REMARK   68  A    between atoms: _163  and  _164
REMARK   69  A    between atoms: _163  and  _166
REMARK   70  A    between atoms: _166  and  _167
REMARK   71  A    between atoms: _169  and  _171
REMARK   72  A    between atoms: _171  and  _172
REMARK   73  A    between atoms: _171  and  _174
REMARK   74  A    between atoms: _177  and  _179
REMARK   75  A    between atoms: _179  and  _180
REMARK   76  A    between atoms: _179  and  _182
REMARK   77  A    between atoms: _185  and  _187
REMARK   78  A    between atoms: _187  and  _188
REMARK   79  A    between atoms: _187  and  _190
REMARK   80  A    between atoms: _190  and  _191
REMARK   81  A    between atoms: _195  and  _196
REMARK   82  A    between atoms: _201  and  _203
REMARK   83  A    between atoms: _203  and  _204
REMARK   84  A    between atoms: _203  and  _206
REMARK   85  A    between atoms: _206  and  _207
REMARK   86  A    between atoms: _212  and  _213
REMARK   87  A    between atoms: _215  and  _217
REMARK   88  A    between atoms: _217  and  _218
REMARK   89  A    between atoms: _217  and  _220
REMARK   90  A    between atoms: _220  and  _221
REMARK   91  A    between atoms: _221  and  _222
REMARK   92  A    between atoms: _224  and  _226
REMARK   93  A    between atoms: _226  and  _227
REMARK   94  A    between atoms: _226  and  _229
REMARK   95  A    between atoms: _229  and  _230
REMARK   96  A    between atoms: _230  and  _231
REMARK   97  A    between atoms: _231  and  _232
REMARK   98  A    between atoms: _232  and  _233
REMARK   99  A    between atoms: _237  and  _239
REMARK  100  A    between atoms: _239  and  _240
REMARK  101  A    between atoms: _239  and  _242
REMARK  102  A    between atoms: _242  and  _243
REMARK  103  A    between atoms: _248  and  _250
REMARK  104  A    between atoms: _250  and  _251
REMARK  105  A    between atoms: _253  and  _255
REMARK  106  A    between atoms: _255  and  _256
REMARK  107  A    between atoms: _255  and  _258
REMARK  108  A    between atoms: _258  and  _259
REMARK  109  A    between atoms: _262  and  _264
REMARK  110  A    between atoms: _264  and  _265
REMARK  111  A    between atoms: _264  and  _267
REMARK  112  A    between atoms: _267  and  _268
REMARK  113  A    between atoms: _271  and  _273
REMARK  114  A    between atoms: _273  and  _274
REMARK  115  A    between atoms: _273  and  _276
REMARK  116  A    between atoms: _276  and  _277
REMARK  117  A    between atoms: _277  and  _278
REMARK  118  A    between atoms: _278  and  _279
REMARK  119  A    between atoms: _288  and  _290
REMARK  120  A    between atoms: _290  and  _291
REMARK  121  A    between atoms: _290  and  _293
REMARK  122  A    between atoms: _293  and  _294
REMARK  123  A    between atoms: _299  and  _301
REMARK  124  A    between atoms: _301  and  _302
REMARK  125  A    between atoms: _301  and  _304
REMARK  126  A    between atoms: _304  and  _305
REMARK  127  A    between atoms: _311  and  _313
REMARK  128  A    between atoms: _313  and  _314
REMARK  129  A    between atoms: _313  and  _316
REMARK  130  A    between atoms: _316  and  _317
REMARK  131  A    between atoms: _317  and  _318
REMARK  132  A    between atoms: _318  and  _319
REMARK  133  A    between atoms: _328  and  _330
REMARK  134  A    between atoms: _330  and  _331
REMARK  135  A    between atoms: _330  and  _333
REMARK  136  A    between atoms: _333  and  _334
REMARK  137  A    between atoms: _339  and  _341
REMARK  138  A    between atoms: _341  and  _342
REMARK  139  A    between atoms: _341  and  _344
REMARK  140  A    between atoms: _344  and  _345
REMARK  141  A    between atoms: _348  and  _350
REMARK  142  A    between atoms: _350  and  _351
REMARK  143  A    between atoms: _354  and  _356
REMARK  144  A    between atoms: _356  and  _357
REMARK  145  A    between atoms: _360  and  _362
REMARK  146  A    between atoms: _362  and  _363
REMARK  147  A    between atoms: _362  and  _365
REMARK  148  A    between atoms: _365  and  _366
REMARK  149  A    between atoms: _366  and  _367
REMARK  150  A    between atoms: _367  and  _368
REMARK  151  A    between atoms: _377  and  _379
REMARK  152  A    between atoms: _379  and  _380
REMARK  153  A    between atoms: _379  and  _382
REMARK  154  A    between atoms: _382  and  _383
REMARK  155  A    between atoms: _388  and  _390
REMARK  156  A    between atoms: _390  and  _391
REMARK  157  A    between atoms: _390  and  _393
REMARK  158  A    between atoms: _395  and  _397
REMARK  159  A    between atoms: _397  and  _398
REMARK  160  A    between atoms: _397  and  _400
REMARK  161  A    between atoms: _400  and  _401
REMARK  162  A    between atoms: _401  and  _402
REMARK  163  A    between atoms: _404  and  _406
REMARK  164  A    between atoms: _406  and  _407
REMARK  165  A    between atoms: _406  and  _409
REMARK  166  A    between atoms: _409  and  _410
REMARK  167  A    between atoms: _413  and  _415
REMARK  168  A    between atoms: _415  and  _416
REMARK  169  A    between atoms: _415  and  _418
REMARK  170  A    between atoms: _418  and  _419
REMARK  171  A    between atoms: _422  and  _424
REMARK  172  A    between atoms: _424  and  _425
REMARK  173  A    between atoms: _424  and  _427
REMARK  174  A    between atoms: _427  and  _428
REMARK  175  A    between atoms: _428  and  _429
REMARK  176  A    between atoms: _429  and  _430
REMARK  177  A    between atoms: _430  and  _431
REMARK  178  A    between atoms: _435  and  _437
REMARK  179  A    between atoms: _437  and  _438
REMARK  180  A    between atoms: _437  and  _440
REMARK  181  A    between atoms: _443  and  _445
REMARK  182  A    between atoms: _445  and  _446
REMARK  183  A    between atoms: _449  and  _451
REMARK  184  A    between atoms: _451  and  _452
REMARK  185  A    between atoms: _451  and  _454
REMARK  186  A    between atoms: _454  and  _455
REMARK  187  A    between atoms: _458  and  _460
REMARK  188  A    between atoms: _460  and  _461
REMARK  189  A    between atoms: _460  and  _463
REMARK  190  A    between atoms: _463  and  _464
REMARK  191  A    between atoms: _470  and  _472
REMARK  192  A    between atoms: _472  and  _473
REMARK  193  A    between atoms: _472  and  _475
REMARK  194  A    between atoms: _475  and  _476
REMARK  195  A    between atoms: _479  and  _481
REMARK  196  A    between atoms: _481  and  _482
REMARK  197  A    between atoms: _485  and  _487
REMARK  198  A    between atoms: _487  and  _488
REMARK  199  A    between atoms: _487  and  _490
REMARK  200  A    between atoms: _490  and  _491
REMARK  201  A    between atoms: _491  and  _492
REMARK  202  A    between atoms: _492  and  _493
REMARK  203  A    between atoms: _502  and  _504
REMARK  204  A    between atoms: _504  and  _505
REMARK  205  A    between atoms: _504  and  _507
REMARK  206  A    between atoms: _507  and  _508
REMARK  207  A    between atoms: _511  and  _513
REMARK  208  A    between atoms: _513  and  _514
REMARK  209  A    between atoms: _513  and  _516
REMARK  210  A    between atoms: _516  and  _517
REMARK  211  A    between atoms: _517  and  _518
REMARK  212  A    between atoms: _520  and  _522
REMARK  213  A    between atoms: _522  and  _523
REMARK  214  A    between atoms: _522  and  _525
REMARK  215  A    between atoms: _525  and  _526
REMARK  216  A    between atoms: _531  and  _532
REMARK  217  A    between atoms: _534  and  _536
REMARK  218  A    between atoms: _536  and  _537
REMARK  219  A    between atoms: _536  and  _539
REMARK  220  A    between atoms: _539  and  _540
REMARK  221  A    between atoms: _543  and  _545
REMARK  222  A    between atoms: _545  and  _546
REMARK  223  A    between atoms: _545  and  _548
REMARK  224  A    between atoms: _548  and  _549
REMARK  225  A    between atoms: _549  and  _550
REMARK  226  A    between atoms: _550  and  _551
REMARK  227  A    between atoms: _551  and  _552
REMARK  228  A    between atoms: _556  and  _558
REMARK  229  A    between atoms: _558  and  _559
REMARK  230  A    between atoms: _558  and  _561
REMARK  231  A    between atoms: _561  and  _562
REMARK  232  A    between atoms: _562  and  _563
REMARK  233  A    between atoms: _566  and  _568
REMARK  234  A    between atoms: _568  and  _569
REMARK  235  A    between atoms: _568  and  _571
REMARK  236  A    between atoms: _571  and  _572
REMARK  237  A    between atoms: _577  and  _578
REMARK  238  A    between atoms: _580  and  _582
REMARK  239  A    between atoms: _582  and  _583
REMARK  240  A    between atoms: _582  and  _585
REMARK  241  A    between atoms: _585  and  _586
REMARK  242  A    between atoms: _591  and  _592
REMARK                            x       y       z     vdW  Elec       q    Type
REMARK                         _______ _______ _______ _____ _____    ______ ____
ROOT
ATOM      1  O   HOH     1      15.115  72.901   3.685  0.00  0.00    +0.000 OA
ENDROOT
TORSDOF 0
REMARK  Name = ../refined-set-2016/3zxz/3zxz_pocket.pdb
REMARK  242 active torsions:
REMARK  status: ('A' for Active; 'I' for Inactive)
REMARK    1  A    between atoms: _1  and  _3
REMARK    2  A    between atoms: _3  and  _4
REMARK    3  A    between atoms: _3  and  _6
REMARK    4  A    between atoms: _9  and  _11
REMARK    5  A    between atoms: _11  and  _12
REMARK    6  A    between atoms: _11  and  _14
REMARK    7  A    between atoms: _14  and  _15
REMARK    8  A    between atoms: _18  and  _20
REMARK    9  A    between atoms: _20  and  _21
REMARK   10  A    between atoms: _23  and  _25
REMARK   11  A    between atoms: _25  and  _26
REMARK   12  A    between atoms: _25  and  _28
REMARK   13  A    between atoms: _28  and  _29
REMARK   14  A    between atoms: _29  and  _30
REMARK   15  A    between atoms: _30  and  _31
REMARK   16  A    between atoms: _40  and  _42
REMARK   17  A    between atoms: _42  and  _43
REMARK   18  A    between atoms: _45  and  _47
REMARK   19  A    between atoms: _47  and  _48
REMARK   20  A    between atoms: _47  and  _50
REMARK   21  A    between atoms: _52  and  _54
REMARK   22  A    between atoms: _54  and  _55
REMARK   23  A    between atoms: _54  and  _57
REMARK   24  A    between atoms: _60  and  _62
REMARK   25  A    between atoms: _62  and  _63
REMARK   26  A    between atoms: _62  and  _65
REMARK   27  A    between atoms: _65  and  _66
REMARK   28  A    between atoms: _71  and  _72
REMARK   29  A    between atoms: _74  and  _76
REMARK   30  A    between atoms: _76  and  _77
REMARK   31  A    between atoms: _76  and  _79
REMARK   32  A    between atoms: _79  and  _80
REMARK   33  A    between atoms: _85  and  _87
REMARK   34  A    between atoms: _87  and  _88
REMARK   35  A    between atoms: _90  and  _92
REMARK   36  A    between atoms: _92  and  _93
REMARK   37  A    between atoms: _92  and  _95
REMARK   38  A    between atoms: _95  and  _96
REMARK   39  A    between atoms: _101  and  _103
REMARK   40  A    between atoms: _103  and  _104
REMARK   41  A    between atoms: _103  and  _106
REMARK   42  A    between atoms: _108  and  _110
REMARK   43  A    between atoms: _110  and  _111
REMARK   44  A    between atoms: _114  and  _116
REMARK   45  A    between atoms: _116  and  _117
REMARK   46  A    between atoms: _116  and  _119
REMARK   47  A    between atoms: _122  and  _124
REMARK   48  A    between atoms: _124  and  _125
REMARK   49  A    between atoms: _124  and  _127
REMARK   50  A    between atoms: _127  and  _128
REMARK   51  A    between atoms: _128  and  _129
REMARK   52  A    between atoms: _129  and  _130
REMARK   53  A    between atoms: _130  and  _131
REMARK   54  A    between atoms: _135  and  _137
REMARK   55  A    between atoms: _137  and  _138
REMARK   56  A    between atoms: _137  and  _140
REMARK   57  A    between atoms: _140  and  _141
REMARK   58  A    between atoms: _143  and  _145
REMARK   59  A    between atoms: _145  and  _146
REMARK   60  A    between atoms: _145  and  _148
REMARK   61  A    between atoms: _148  and  _149
REMARK   62  A    between atoms: _149  and  _150
REMARK   63  A    between atoms: _152  and  _154
REMARK   64  A    between atoms: _154  and  _155
REMARK   65  A    between atoms: _154  and  _157
REMARK   66  A    between atoms: _157  and  _158
REMARK   67  A    between atoms: _161  and  _163
REMARK   68  A    between atoms: _163  and  _164
REMARK   69  A    between atoms: _163  and  _166
REMARK   70  A    between atoms: _166  and  _167
REMARK   71  A    between atoms: _169  and  _171
REMARK   72  A    between atoms: _171  and  _172
REMARK   73  A    between atoms: _171  and  _174
REMARK   74  A    between atoms: _177  and  _179
REMARK   75  A    between atoms: _179  and  _180
REMARK   76  A    between atoms: _179  and  _182
REMARK   77  A    between atoms: _185  and  _187
REMARK   78  A    between atoms: _187  and  _188
REMARK   79  A    between atoms: _187  and  _190
REMARK   80  A    between atoms: _190  and  _191
REMARK   81  A    between atoms: _195  and  _196
REMARK   82  A    between atoms: _201  and  _203
REMARK   83  A    between atoms: _203  and  _204
REMARK   84  A    between atoms: _203  and  _206
REMARK   85  A    between atoms: _206  and  _207
REMARK   86  A    between atoms: _212  and  _213
REMARK   87  A    between atoms: _215  and  _217
REMARK   88  A    between atoms: _217  and  _218
REMARK   89  A    between atoms: _217  and  _220
REMARK   90  A    between atoms: _220  and  _221
REMARK   91  A    between atoms: _221  and  _222
REMARK   92  A    between atoms: _224  and  _226
REMARK   93  A    between atoms: _226  and  _227
REMARK   94  A    between atoms: _226  and  _229
REMARK   95  A    between atoms: _229  and  _230
REMARK   96  A    between atoms: _230  and  _231
REMARK   97  A    between atoms: _231  and  _232
REMARK   98  A    between atoms: _232  and  _233
REMARK   99  A    between atoms: _237  and  _239
REMARK  100  A    between atoms: _239  and  _240
REMARK  101  A    between atoms: _239  and  _242
REMARK  102  A    between atoms: _242  and  _243
REMARK  103  A    between atoms: _248  and  _250
REMARK  104  A    between atoms: _250  and  _251
REMARK  105  A    between atoms: _253  and  _255
REMARK  106  A    between atoms: _255  and  _256
REMARK  107  A    between atoms: _255  and  _258
REMARK  108  A    between atoms: _258  and  _259
REMARK  109  A    between atoms: _262  and  _264
REMARK  110  A    between atoms: _264  and  _265
REMARK  111  A    between atoms: _264  and  _267
REMARK  112  A    between atoms: _267  and  _268
REMARK  113  A    between atoms: _271  and  _273
REMARK  114  A    between atoms: _273  and  _274
REMARK  115  A    between atoms: _273  and  _276
REMARK  116  A    between atoms: _276  and  _277
REMARK  117  A    between atoms: _277  and  _278
REMARK  118  A    between atoms: _278  and  _279
REMARK  119  A    between atoms: _288  and  _290
REMARK  120  A    between atoms: _290  and  _291
REMARK  121  A    between atoms: _290  and  _293
REMARK  122  A    between atoms: _293  and  _294
REMARK  123  A    between atoms: _299  and  _301
REMARK  124  A    between atoms: _301  and  _302
REMARK  125  A    between atoms: _301  and  _304
REMARK  126  A    between atoms: _304  and  _305
REMARK  127  A    between atoms: _311  and  _313
REMARK  128  A    between atoms: _313  and  _314
REMARK  129  A    between atoms: _313  and  _316
REMARK  130  A    between atoms: _316  and  _317
REMARK  131  A    between atoms: _317  and  _318
REMARK  132  A    between atoms: _318  and  _319
REMARK  133  A    between atoms: _328  and  _330
REMARK  134  A    between atoms: _330  and  _331
REMARK  135  A    between atoms: _330  and  _333
REMARK  136  A    between atoms: _333  and  _334
REMARK  137  A    between atoms: _339  and  _341
REMARK  138  A    between atoms: _341  and  _342
REMARK  139  A    between atoms: _341  and  _344
REMARK  140  A    between atoms: _344  and  _345
REMARK  141  A    between atoms: _348  and  _350
REMARK  142  A    between atoms: _350  and  _351
REMARK  143  A    between atoms: _354  and  _356
REMARK  144  A    between atoms: _356  and  _357
REMARK  145  A    between atoms: _360  and  _362
REMARK  146  A    between atoms: _362  and  _363
REMARK  147  A    between atoms: _362  and  _365
REMARK  148  A    between atoms: _365  and  _366
REMARK  149  A    between atoms: _366  and  _367
REMARK  150  A    between atoms: _367  and  _368
REMARK  151  A    between atoms: _377  and  _379
REMARK  152  A    between atoms: _379  and  _380
REMARK  153  A    between atoms: _379  and  _382
REMARK  154  A    between atoms: _382  and  _383
REMARK  155  A    between atoms: _388  and  _390
REMARK  156  A    between atoms: _390  and  _391
REMARK  157  A    between atoms: _390  and  _393
REMARK  158  A    between atoms: _395  and  _397
REMARK  159  A    between atoms: _397  and  _398
REMARK  160  A    between atoms: _397  and  _400
REMARK  161  A    between atoms: _400  and  _401
REMARK  162  A    between atoms: _401  and  _402
REMARK  163  A    between atoms: _404  and  _406
REMARK  164  A    between atoms: _406  and  _407
REMARK  165  A    between atoms: _406  and  _409
REMARK  166  A    between atoms: _409  and  _410
REMARK  167  A    between atoms: _413  and  _415
REMARK  168  A    between atoms: _415  and  _416
REMARK  169  A    between atoms: _415  and  _418
REMARK  170  A    between atoms: _418  and  _419
REMARK  171  A    between atoms: _422  and  _424
REMARK  172  A    between atoms: _424  and  _425
REMARK  173  A    between atoms: _424  and  _427
REMARK  174  A    between atoms: _427  and  _428
REMARK  175  A    between atoms: _428  and  _429
REMARK  176  A    between atoms: _429  and  _430
REMARK  177  A    between atoms: _430  and  _431
REMARK  178  A    between atoms: _435  and  _437
REMARK  179  A    between atoms: _437  and  _438
REMARK  180  A    between atoms: _437  and  _440
REMARK  181  A    between atoms: _443  and  _445
REMARK  182  A    between atoms: _445  and  _446
REMARK  183  A    between atoms: _449  and  _451
REMARK  184  A    between atoms: _451  and  _452
REMARK  185  A    between atoms: _451  and  _454
REMARK  186  A    between atoms: _454  and  _455
REMARK  187  A    between atoms: _458  and  _460
REMARK  188  A    between atoms: _460  and  _461
REMARK  189  A    between atoms: _460  and  _463
REMARK  190  A    between atoms: _463  and  _464
REMARK  191  A    between atoms: _470  and  _472
REMARK  192  A    between atoms: _472  and  _473
REMARK  193  A    between atoms: _472  and  _475
REMARK  194  A    between atoms: _475  and  _476
REMARK  195  A    between atoms: _479  and  _481
REMARK  196  A    between atoms: _481  and  _482
REMARK  197  A    between atoms: _485  and  _487
REMARK  198  A    between atoms: _487  and  _488
REMARK  199  A    between atoms: _487  and  _490
REMARK  200  A    between atoms: _490  and  _491
REMARK  201  A    between atoms: _491  and  _492
REMARK  202  A    between atoms: _492  and  _493
REMARK  203  A    between atoms: _502  and  _504
REMARK  204  A    between atoms: _504  and  _505
REMARK  205  A    between atoms: _504  and  _507
REMARK  206  A    between atoms: _507  and  _508
REMARK  207  A    between atoms: _511  and  _513
REMARK  208  A    between atoms: _513  and  _514
REMARK  209  A    between atoms: _513  and  _516
REMARK  210  A    between atoms: _516  and  _517
REMARK  211  A    between atoms: _517  and  _518
REMARK  212  A    between atoms: _520  and  _522
REMARK  213  A    between atoms: _522  and  _523
REMARK  214  A    between atoms: _522  and  _525
REMARK  215  A    between atoms: _525  and  _526
REMARK  216  A    between atoms: _531  and  _532
REMARK  217  A    between atoms: _534  and  _536
REMARK  218  A    between atoms: _536  and  _537
REMARK  219  A    between atoms: _536  and  _539
REMARK  220  A    between atoms: _539  and  _540
REMARK  221  A    between atoms: _543  and  _545
REMARK  222  A    between atoms: _545  and  _546
REMARK  223  A    between atoms: _545  and  _548
REMARK  224  A    between atoms: _548  and  _549
REMARK  225  A    between atoms: _549  and  _550
REMARK  226  A    between atoms: _550  and  _551
REMARK  227  A    between atoms: _551  and  _552
REMARK  228  A    between atoms: _556  and  _558
REMARK  229  A    between atoms: _558  and  _559
REMARK  230  A    between atoms: _558  and  _561
REMARK  231  A    between atoms: _561  and  _562
REMARK  232  A    between atoms: _562  and  _563
REMARK  233  A    between atoms: _566  and  _568
REMARK  234  A    between atoms: _568  and  _569
REMARK  235  A    between atoms: _568  and  _571
REMARK  236  A    between atoms: _571  and  _572
REMARK  237  A    between atoms: _577  and  _578
REMARK  238  A    between atoms: _580  and  _582
REMARK  239  A    between atoms: _582  and  _583
REMARK  240  A    between atoms: _582  and  _585
REMARK  241  A    between atoms: _585  and  _586
REMARK  242  A    between atoms: _591  and  _592
REMARK                            x       y       z     vdW  Elec       q    Type
REMARK                         _______ _______ _______ _____ _____    ______ ____
ROOT
ATOM      1  O   HOH     1      12.601  79.924   4.237  0.00  0.00    +0.000 OA
ENDROOT
TORSDOF 0
REMARK  Name = ../refined-set-2016/3zxz/3zxz_pocket.pdb
REMARK  242 active torsions:
REMARK  status: ('A' for Active; 'I' for Inactive)
REMARK    1  A    between atoms: _1  and  _3
REMARK    2  A    between atoms: _3  and  _4
REMARK    3  A    between atoms: _3  and  _6
REMARK    4  A    between atoms: _9  and  _11
REMARK    5  A    between atoms: _11  and  _12
REMARK    6  A    between atoms: _11  and  _14
REMARK    7  A    between atoms: _14  and  _15
REMARK    8  A    between atoms: _18  and  _20
REMARK    9  A    between atoms: _20  and  _21
REMARK   10  A    between atoms: _23  and  _25
REMARK   11  A    between atoms: _25  and  _26
REMARK   12  A    between atoms: _25  and  _28
REMARK   13  A    between atoms: _28  and  _29
REMARK   14  A    between atoms: _29  and  _30
REMARK   15  A    between atoms: _30  and  _31
REMARK   16  A    between atoms: _40  and  _42
REMARK   17  A    between atoms: _42  and  _43
REMARK   18  A    between atoms: _45  and  _47
REMARK   19  A    between atoms: _47  and  _48
REMARK   20  A    between atoms: _47  and  _50
REMARK   21  A    between atoms: _52  and  _54
REMARK   22  A    between atoms: _54  and  _55
REMARK   23  A    between atoms: _54  and  _57
REMARK   24  A    between atoms: _60  and  _62
REMARK   25  A    between atoms: _62  and  _63
REMARK   26  A    between atoms: _62  and  _65
REMARK   27  A    between atoms: _65  and  _66
REMARK   28  A    between atoms: _71  and  _72
REMARK   29  A    between atoms: _74  and  _76
REMARK   30  A    between atoms: _76  and  _77
REMARK   31  A    between atoms: _76  and  _79
REMARK   32  A    between atoms: _79  and  _80
REMARK   33  A    between atoms: _85  and  _87
REMARK   34  A    between atoms: _87  and  _88
REMARK   35  A    between atoms: _90  and  _92
REMARK   36  A    between atoms: _92  and  _93
REMARK   37  A    between atoms: _92  and  _95
REMARK   38  A    between atoms: _95  and  _96
REMARK   39  A    between atoms: _101  and  _103
REMARK   40  A    between atoms: _103  and  _104
REMARK   41  A    between atoms: _103  and  _106
REMARK   42  A    between atoms: _108  and  _110
REMARK   43  A    between atoms: _110  and  _111
REMARK   44  A    between atoms: _114  and  _116
REMARK   45  A    between atoms: _116  and  _117
REMARK   46  A    between atoms: _116  and  _119
REMARK   47  A    between atoms: _122  and  _124
REMARK   48  A    between atoms: _124  and  _125
REMARK   49  A    between atoms: _124  and  _127
REMARK   50  A    between atoms: _127  and  _128
REMARK   51  A    between atoms: _128  and  _129
REMARK   52  A    between atoms: _129  and  _130
REMARK   53  A    between atoms: _130  and  _131
REMARK   54  A    between atoms: _135  and  _137
REMARK   55  A    between atoms: _137  and  _138
REMARK   56  A    between atoms: _137  and  _140
REMARK   57  A    between atoms: _140  and  _141
REMARK   58  A    between atoms: _143  and  _145
REMARK   59  A    between atoms: _145  and  _146
REMARK   60  A    between atoms: _145  and  _148
REMARK   61  A    between atoms: _148  and  _149
REMARK   62  A    between atoms: _149  and  _150
REMARK   63  A    between atoms: _152  and  _154
REMARK   64  A    between atoms: _154  and  _155
REMARK   65  A    between atoms: _154  and  _157
REMARK   66  A    between atoms: _157  and  _158
REMARK   67  A    between atoms: _161  and  _163
REMARK   68  A    between atoms: _163  and  _164
REMARK   69  A    between atoms: _163  and  _166
REMARK   70  A    between atoms: _166  and  _167
REMARK   71  A    between atoms: _169  and  _171
REMARK   72  A    between atoms: _171  and  _172
REMARK   73  A    between atoms: _171  and  _174
REMARK   74  A    between atoms: _177  and  _179
REMARK   75  A    between atoms: _179  and  _180
REMARK   76  A    between atoms: _179  and  _182
REMARK   77  A    between atoms: _185  and  _187
REMARK   78  A    between atoms: _187  and  _188
REMARK   79  A    between atoms: _187  and  _190
REMARK   80  A    between atoms: _190  and  _191
REMARK   81  A    between atoms: _195  and  _196
REMARK   82  A    between atoms: _201  and  _203
REMARK   83  A    between atoms: _203  and  _204
REMARK   84  A    between atoms: _203  and  _206
REMARK   85  A    between atoms: _206  and  _207
REMARK   86  A    between atoms: _212  and  _213
REMARK   87  A    between atoms: _215  and  _217
REMARK   88  A    between atoms: _217  and  _218
REMARK   89  A    between atoms: _217  and  _220
REMARK   90  A    between atoms: _220  and  _221
REMARK   91  A    between atoms: _221  and  _222
REMARK   92  A    between atoms: _224  and  _226
REMARK   93  A    between atoms: _226  and  _227
REMARK   94  A    between atoms: _226  and  _229
REMARK   95  A    between atoms: _229  and  _230
REMARK   96  A    between atoms: _230  and  _231
REMARK   97  A    between atoms: _231  and  _232
REMARK   98  A    between atoms: _232  and  _233
REMARK   99  A    between atoms: _237  and  _239
REMARK  100  A    between atoms: _239  and  _240
REMARK  101  A    between atoms: _239  and  _242
REMARK  102  A    between atoms: _242  and  _243
REMARK  103  A    between atoms: _248  and  _250
REMARK  104  A    between atoms: _250  and  _251
REMARK  105  A    between atoms: _253  and  _255
REMARK  106  A    between atoms: _255  and  _256
REMARK  107  A    between atoms: _255  and  _258
REMARK  108  A    between atoms: _258  and  _259
REMARK  109  A    between atoms: _262  and  _264
REMARK  110  A    between atoms: _264  and  _265
REMARK  111  A    between atoms: _264  and  _267
REMARK  112  A    between atoms: _267  and  _268
REMARK  113  A    between atoms: _271  and  _273
REMARK  114  A    between atoms: _273  and  _274
REMARK  115  A    between atoms: _273  and  _276
REMARK  116  A    between atoms: _276  and  _277
REMARK  117  A    between atoms: _277  and  _278
REMARK  118  A    between atoms: _278  and  _279
REMARK  119  A    between atoms: _288  and  _290
REMARK  120  A    between atoms: _290  and  _291
REMARK  121  A    between atoms: _290  and  _293
REMARK  122  A    between atoms: _293  and  _294
REMARK  123  A    between atoms: _299  and  _301
REMARK  124  A    between atoms: _301  and  _302
REMARK  125  A    between atoms: _301  and  _304
REMARK  126  A    between atoms: _304  and  _305
REMARK  127  A    between atoms: _311  and  _313
REMARK  128  A    between atoms: _313  and  _314
REMARK  129  A    between atoms: _313  and  _316
REMARK  130  A    between atoms: _316  and  _317
REMARK  131  A    between atoms: _317  and  _318
REMARK  132  A    between atoms: _318  and  _319
REMARK  133  A    between atoms: _328  and  _330
REMARK  134  A    between atoms: _330  and  _331
REMARK  135  A    between atoms: _330  and  _333
REMARK  136  A    between atoms: _333  and  _334
REMARK  137  A    between atoms: _339  and  _341
REMARK  138  A    between atoms: _341  and  _342
REMARK  139  A    between atoms: _341  and  _344
REMARK  140  A    between atoms: _344  and  _345
REMARK  141  A    between atoms: _348  and  _350
REMARK  142  A    between atoms: _350  and  _351
REMARK  143  A    between atoms: _354  and  _356
REMARK  144  A    between atoms: _356  and  _357
REMARK  145  A    between atoms: _360  and  _362
REMARK  146  A    between atoms: _362  and  _363
REMARK  147  A    between atoms: _362  and  _365
REMARK  148  A    between atoms: _365  and  _366
REMARK  149  A    between atoms: _366  and  _367
REMARK  150  A    between atoms: _367  and  _368
REMARK  151  A    between atoms: _377  and  _379
REMARK  152  A    between atoms: _379  and  _380
REMARK  153  A    between atoms: _379  and  _382
REMARK  154  A    between atoms: _382  and  _383
REMARK  155  A    between atoms: _388  and  _390
REMARK  156  A    between atoms: _390  and  _391
REMARK  157  A    between atoms: _390  and  _393
REMARK  158  A    between atoms: _395  and  _397
REMARK  159  A    between atoms: _397  and  _398
REMARK  160  A    between atoms: _397  and  _400
REMARK  161  A    between atoms: _400  and  _401
REMARK  162  A    between atoms: _401  and  _402
REMARK  163  A    between atoms: _404  and  _406
REMARK  164  A    between atoms: _406  and  _407
REMARK  165  A    between atoms: _406  and  _409
REMARK  166  A    between atoms: _409  and  _410
REMARK  167  A    between atoms: _413  and  _415
REMARK  168  A    between atoms: _415  and  _416
REMARK  169  A    between atoms: _415  and  _418
REMARK  170  A    between atoms: _418  and  _419
REMARK  171  A    between atoms: _422  and  _424
REMARK  172  A    between atoms: _424  and  _425
REMARK  173  A    between atoms: _424  and  _427
REMARK  174  A    between atoms: _427  and  _428
REMARK  175  A    between atoms: _428  and  _429
REMARK  176  A    between atoms: _429  and  _430
REMARK  177  A    between atoms: _430  and  _431
REMARK  178  A    between atoms: _435  and  _437
REMARK  179  A    between atoms: _437  and  _438
REMARK  180  A    between atoms: _437  and  _440
REMARK  181  A    between atoms: _443  and  _445
REMARK  182  A    between atoms: _445  and  _446
REMARK  183  A    between atoms: _449  and  _451
REMARK  184  A    between atoms: _451  and  _452
REMARK  185  A    between atoms: _451  and  _454
REMARK  186  A    between atoms: _454  and  _455
REMARK  187  A    between atoms: _458  and  _460
REMARK  188  A    between atoms: _460  and  _461
REMARK  189  A    between atoms: _460  and  _463
REMARK  190  A    between atoms: _463  and  _464
REMARK  191  A    between atoms: _470  and  _472
REMARK  192  A    between atoms: _472  and  _473
REMARK  193  A    between atoms: _472  and  _475
REMARK  194  A    between atoms: _475  and  _476
REMARK  195  A    between atoms: _479  and  _481
REMARK  196  A    between atoms: _481  and  _482
REMARK  197  A    between atoms: _485  and  _487
REMARK  198  A    between atoms: _487  and  _488
REMARK  199  A    between atoms: _487  and  _490
REMARK  200  A    between atoms: _490  and  _491
REMARK  201  A    between atoms: _491  and  _492
REMARK  202  A    between atoms: _492  and  _493
REMARK  203  A    between atoms: _502  and  _504
REMARK  204  A    between atoms: _504  and  _505
REMARK  205  A    between atoms: _504  and  _507
REMARK  206  A    between atoms: _507  and  _508
REMARK  207  A    between atoms: _511  and  _513
REMARK  208  A    between atoms: _513  and  _514
REMARK  209  A    between atoms: _513  and  _516
REMARK  210  A    between atoms: _516  and  _517
REMARK  211  A    between atoms: _517  and  _518
REMARK  212  A    between atoms: _520  and  _522
REMARK  213  A    between atoms: _522  and  _523
REMARK  214  A    between atoms: _522  and  _525
REMARK  215  A    between atoms: _525  and  _526
REMARK  216  A    between atoms: _531  and  _532
REMARK  217  A    between atoms: _534  and  _536
REMARK  218  A    between atoms: _536  and  _537
REMARK  219  A    between atoms: _536  and  _539
REMARK  220  A    between atoms: _539  and  _540
REMARK  221  A    between atoms: _543  and  _545
REMARK  222  A    between atoms: _545  and  _546
REMARK  223  A    between atoms: _545  and  _548
REMARK  224  A    between atoms: _548  and  _549
REMARK  225  A    between atoms: _549  and  _550
REMARK  226  A    between atoms: _550  and  _551
REMARK  227  A    between atoms: _551  and  _552
REMARK  228  A    between atoms: _556  and  _558
REMARK  229  A    between atoms: _558  and  _559
REMARK  230  A    between atoms: _558  and  _561
REMARK  231  A    between atoms: _561  and  _562
REMARK  232  A    between atoms: _562  and  _563
REMARK  233  A    between atoms: _566  and  _568
REMARK  234  A    between atoms: _568  and  _569
REMARK  235  A    between atoms: _568  and  _571
REMARK  236  A    between atoms: _571  and  _572
REMARK  237  A    between atoms: _577  and  _578
REMARK  238  A    between atoms: _580  and  _582
REMARK  239  A    between atoms: _582  and  _583
REMARK  240  A    between atoms: _582  and  _585
REMARK  241  A    between atoms: _585  and  _586
REMARK  242  A    between atoms: _591  and  _592
REMARK                            x       y       z     vdW  Elec       q    Type
REMARK                         _______ _______ _______ _____ _____    ______ ____
ROOT
ATOM      1  O   HOH     1      13.673  73.644   1.302  0.00  0.00    +0.000 OA
ENDROOT
TORSDOF 0
REMARK  Name = ../refined-set-2016/3zxz/3zxz_pocket.pdb
REMARK  242 active torsions:
REMARK  status: ('A' for Active; 'I' for Inactive)
REMARK    1  A    between atoms: _1  and  _3
REMARK    2  A    between atoms: _3  and  _4
REMARK    3  A    between atoms: _3  and  _6
REMARK    4  A    between atoms: _9  and  _11
REMARK    5  A    between atoms: _11  and  _12
REMARK    6  A    between atoms: _11  and  _14
REMARK    7  A    between atoms: _14  and  _15
REMARK    8  A    between atoms: _18  and  _20
REMARK    9  A    between atoms: _20  and  _21
REMARK   10  A    between atoms: _23  and  _25
REMARK   11  A    between atoms: _25  and  _26
REMARK   12  A    between atoms: _25  and  _28
REMARK   13  A    between atoms: _28  and  _29
REMARK   14  A    between atoms: _29  and  _30
REMARK   15  A    between atoms: _30  and  _31
REMARK   16  A    between atoms: _40  and  _42
REMARK   17  A    between atoms: _42  and  _43
REMARK   18  A    between atoms: _45  and  _47
REMARK   19  A    between atoms: _47  and  _48
REMARK   20  A    between atoms: _47  and  _50
REMARK   21  A    between atoms: _52  and  _54
REMARK   22  A    between atoms: _54  and  _55
REMARK   23  A    between atoms: _54  and  _57
REMARK   24  A    between atoms: _60  and  _62
REMARK   25  A    between atoms: _62  and  _63
REMARK   26  A    between atoms: _62  and  _65
REMARK   27  A    between atoms: _65  and  _66
REMARK   28  A    between atoms: _71  and  _72
REMARK   29  A    between atoms: _74  and  _76
REMARK   30  A    between atoms: _76  and  _77
REMARK   31  A    between atoms: _76  and  _79
REMARK   32  A    between atoms: _79  and  _80
REMARK   33  A    between atoms: _85  and  _87
REMARK   34  A    between atoms: _87  and  _88
REMARK   35  A    between atoms: _90  and  _92
REMARK   36  A    between atoms: _92  and  _93
REMARK   37  A    between atoms: _92  and  _95
REMARK   38  A    between atoms: _95  and  _96
REMARK   39  A    between atoms: _101  and  _103
REMARK   40  A    between atoms: _103  and  _104
REMARK   41  A    between atoms: _103  and  _106
REMARK   42  A    between atoms: _108  and  _110
REMARK   43  A    between atoms: _110  and  _111
REMARK   44  A    between atoms: _114  and  _116
REMARK   45  A    between atoms: _116  and  _117
REMARK   46  A    between atoms: _116  and  _119
REMARK   47  A    between atoms: _122  and  _124
REMARK   48  A    between atoms: _124  and  _125
REMARK   49  A    between atoms: _124  and  _127
REMARK   50  A    between atoms: _127  and  _128
REMARK   51  A    between atoms: _128  and  _129
REMARK   52  A    between atoms: _129  and  _130
REMARK   53  A    between atoms: _130  and  _131
REMARK   54  A    between atoms: _135  and  _137
REMARK   55  A    between atoms: _137  and  _138
REMARK   56  A    between atoms: _137  and  _140
REMARK   57  A    between atoms: _140  and  _141
REMARK   58  A    between atoms: _143  and  _145
REMARK   59  A    between atoms: _145  and  _146
REMARK   60  A    between atoms: _145  and  _148
REMARK   61  A    between atoms: _148  and  _149
REMARK   62  A    between atoms: _149  and  _150
REMARK   63  A    between atoms: _152  and  _154
REMARK   64  A    between atoms: _154  and  _155
REMARK   65  A    between atoms: _154  and  _157
REMARK   66  A    between atoms: _157  and  _158
REMARK   67  A    between atoms: _161  and  _163
REMARK   68  A    between atoms: _163  and  _164
REMARK   69  A    between atoms: _163  and  _166
REMARK   70  A    between atoms: _166  and  _167
REMARK   71  A    between atoms: _169  and  _171
REMARK   72  A    between atoms: _171  and  _172
REMARK   73  A    between atoms: _171  and  _174
REMARK   74  A    between atoms: _177  and  _179
REMARK   75  A    between atoms: _179  and  _180
REMARK   76  A    between atoms: _179  and  _182
REMARK   77  A    between atoms: _185  and  _187
REMARK   78  A    between atoms: _187  and  _188
REMARK   79  A    between atoms: _187  and  _190
REMARK   80  A    between atoms: _190  and  _191
REMARK   81  A    between atoms: _195  and  _196
REMARK   82  A    between atoms: _201  and  _203
REMARK   83  A    between atoms: _203  and  _204
REMARK   84  A    between atoms: _203  and  _206
REMARK   85  A    between atoms: _206  and  _207
REMARK   86  A    between atoms: _212  and  _213
REMARK   87  A    between atoms: _215  and  _217
REMARK   88  A    between atoms: _217  and  _218
REMARK   89  A    between atoms: _217  and  _220
REMARK   90  A    between atoms: _220  and  _221
REMARK   91  A    between atoms: _221  and  _222
REMARK   92  A    between atoms: _224  and  _226
REMARK   93  A    between atoms: _226  and  _227
REMARK   94  A    between atoms: _226  and  _229
REMARK   95  A    between atoms: _229  and  _230
REMARK   96  A    between atoms: _230  and  _231
REMARK   97  A    between atoms: _231  and  _232
REMARK   98  A    between atoms: _232  and  _233
REMARK   99  A    between atoms: _237  and  _239
REMARK  100  A    between atoms: _239  and  _240
REMARK  101  A    between atoms: _239  and  _242
REMARK  102  A    between atoms: _242  and  _243
REMARK  103  A    between atoms: _248  and  _250
REMARK  104  A    between atoms: _250  and  _251
REMARK  105  A    between atoms: _253  and  _255
REMARK  106  A    between atoms: _255  and  _256
REMARK  107  A    between atoms: _255  and  _258
REMARK  108  A    between atoms: _258  and  _259
REMARK  109  A    between atoms: _262  and  _264
REMARK  110  A    between atoms: _264  and  _265
REMARK  111  A    between atoms: _264  and  _267
REMARK  112  A    between atoms: _267  and  _268
REMARK  113  A    between atoms: _271  and  _273
REMARK  114  A    between atoms: _273  and  _274
REMARK  115  A    between atoms: _273  and  _276
REMARK  116  A    between atoms: _276  and  _277
REMARK  117  A    between atoms: _277  and  _278
REMARK  118  A    between atoms: _278  and  _279
REMARK  119  A    between atoms: _288  and  _290
REMARK  120  A    between atoms: _290  and  _291
REMARK  121  A    between atoms: _290  and  _293
REMARK  122  A    between atoms: _293  and  _294
REMARK  123  A    between atoms: _299  and  _301
REMARK  124  A    between atoms: _301  and  _302
REMARK  125  A    between atoms: _301  and  _304
REMARK  126  A    between atoms: _304  and  _305
REMARK  127  A    between atoms: _311  and  _313
REMARK  128  A    between atoms: _313  and  _314
REMARK  129  A    between atoms: _313  and  _316
REMARK  130  A    between atoms: _316  and  _317
REMARK  131  A    between atoms: _317  and  _318
REMARK  132  A    between atoms: _318  and  _319
REMARK  133  A    between atoms: _328  and  _330
REMARK  134  A    between atoms: _330  and  _331
REMARK  135  A    between atoms: _330  and  _333
REMARK  136  A    between atoms: _333  and  _334
REMARK  137  A    between atoms: _339  and  _341
REMARK  138  A    between atoms: _341  and  _342
REMARK  139  A    between atoms: _341  and  _344
REMARK  140  A    between atoms: _344  and  _345
REMARK  141  A    between atoms: _348  and  _350
REMARK  142  A    between atoms: _350  and  _351
REMARK  143  A    between atoms: _354  and  _356
REMARK  144  A    between atoms: _356  and  _357
REMARK  145  A    between atoms: _360  and  _362
REMARK  146  A    between atoms: _362  and  _363
REMARK  147  A    between atoms: _362  and  _365
REMARK  148  A    between atoms: _365  and  _366
REMARK  149  A    between atoms: _366  and  _367
REMARK  150  A    between atoms: _367  and  _368
REMARK  151  A    between atoms: _377  and  _379
REMARK  152  A    between atoms: _379  and  _380
REMARK  153  A    between atoms: _379  and  _382
REMARK  154  A    between atoms: _382  and  _383
REMARK  155  A    between atoms: _388  and  _390
REMARK  156  A    between atoms: _390  and  _391
REMARK  157  A    between atoms: _390  and  _393
REMARK  158  A    between atoms: _395  and  _397
REMARK  159  A    between atoms: _397  and  _398
REMARK  160  A    between atoms: _397  and  _400
REMARK  161  A    between atoms: _400  and  _401
REMARK  162  A    between atoms: _401  and  _402
REMARK  163  A    between atoms: _404  and  _406
REMARK  164  A    between atoms: _406  and  _407
REMARK  165  A    between atoms: _406  and  _409
REMARK  166  A    between atoms: _409  and  _410
REMARK  167  A    between atoms: _413  and  _415
REMARK  168  A    between atoms: _415  and  _416
REMARK  169  A    between atoms: _415  and  _418
REMARK  170  A    between atoms: _418  and  _419
REMARK  171  A    between atoms: _422  and  _424
REMARK  172  A    between atoms: _424  and  _425
REMARK  173  A    between atoms: _424  and  _427
REMARK  174  A    between atoms: _427  and  _428
REMARK  175  A    between atoms: _428  and  _429
REMARK  176  A    between atoms: _429  and  _430
REMARK  177  A    between atoms: _430  and  _431
REMARK  178  A    between atoms: _435  and  _437
REMARK  179  A    between atoms: _437  and  _438
REMARK  180  A    between atoms: _437  and  _440
REMARK  181  A    between atoms: _443  and  _445
REMARK  182  A    between atoms: _445  and  _446
REMARK  183  A    between atoms: _449  and  _451
REMARK  184  A    between atoms: _451  and  _452
REMARK  185  A    between atoms: _451  and  _454
REMARK  186  A    between atoms: _454  and  _455
REMARK  187  A    between atoms: _458  and  _460
REMARK  188  A    between atoms: _460  and  _461
REMARK  189  A    between atoms: _460  and  _463
REMARK  190  A    between atoms: _463  and  _464
REMARK  191  A    between atoms: _470  and  _472
REMARK  192  A    between atoms: _472  and  _473
REMARK  193  A    between atoms: _472  and  _475
REMARK  194  A    between atoms: _475  and  _476
REMARK  195  A    between atoms: _479  and  _481
REMARK  196  A    between atoms: _481  and  _482
REMARK  197  A    between atoms: _485  and  _487
REMARK  198  A    between atoms: _487  and  _488
REMARK  199  A    between atoms: _487  and  _490
REMARK  200  A    between atoms: _490  and  _491
REMARK  201  A    between atoms: _491  and  _492
REMARK  202  A    between atoms: _492  and  _493
REMARK  203  A    between atoms: _502  and  _504
REMARK  204  A    between atoms: _504  and  _505
REMARK  205  A    between atoms: _504  and  _507
REMARK  206  A    between atoms: _507  and  _508
REMARK  207  A    between atoms: _511  and  _513
REMARK  208  A    between atoms: _513  and  _514
REMARK  209  A    between atoms: _513  and  _516
REMARK  210  A    between atoms: _516  and  _517
REMARK  211  A    between atoms: _517  and  _518
REMARK  212  A    between atoms: _520  and  _522
REMARK  213  A    between atoms: _522  and  _523
REMARK  214  A    between atoms: _522  and  _525
REMARK  215  A    between atoms: _525  and  _526
REMARK  216  A    between atoms: _531  and  _532
REMARK  217  A    between atoms: _534  and  _536
REMARK  218  A    between atoms: _536  and  _537
REMARK  219  A    between atoms: _536  and  _539
REMARK  220  A    between atoms: _539  and  _540
REMARK  221  A    between atoms: _543  and  _545
REMARK  222  A    between atoms: _545  and  _546
REMARK  223  A    between atoms: _545  and  _548
REMARK  224  A    between atoms: _548  and  _549
REMARK  225  A    between atoms: _549  and  _550
REMARK  226  A    between atoms: _550  and  _551
REMARK  227  A    between atoms: _551  and  _552
REMARK  228  A    between atoms: _556  and  _558
REMARK  229  A    between atoms: _558  and  _559
REMARK  230  A    between atoms: _558  and  _561
REMARK  231  A    between atoms: _561  and  _562
REMARK  232  A    between atoms: _562  and  _563
REMARK  233  A    between atoms: _566  and  _568
REMARK  234  A    between atoms: _568  and  _569
REMARK  235  A    between atoms: _568  and  _571
REMARK  236  A    between atoms: _571  and  _572
REMARK  237  A    between atoms: _577  and  _578
REMARK  238  A    between atoms: _580  and  _582
REMARK  239  A    between atoms: _582  and  _583
REMARK  240  A    between atoms: _582  and  _585
REMARK  241  A    between atoms: _585  and  _586
REMARK  242  A    between atoms: _591  and  _592
REMARK                            x       y       z     vdW  Elec       q    Type
REMARK                         _______ _______ _______ _____ _____    ______ ____
ROOT
ATOM      1  O   HOH     1      13.373  75.973  -4.706  0.00  0.00    +0.000 OA
ENDROOT
TORSDOF 0
REMARK  Name = ../refined-set-2016/3zxz/3zxz_pocket.pdb
REMARK  242 active torsions:
REMARK  status: ('A' for Active; 'I' for Inactive)
REMARK    1  A    between atoms: _1  and  _3
REMARK    2  A    between atoms: _3  and  _4
REMARK    3  A    between atoms: _3  and  _6
REMARK    4  A    between atoms: _9  and  _11
REMARK    5  A    between atoms: _11  and  _12
REMARK    6  A    between atoms: _11  and  _14
REMARK    7  A    between atoms: _14  and  _15
REMARK    8  A    between atoms: _18  and  _20
REMARK    9  A    between atoms: _20  and  _21
REMARK   10  A    between atoms: _23  and  _25
REMARK   11  A    between atoms: _25  and  _26
REMARK   12  A    between atoms: _25  and  _28
REMARK   13  A    between atoms: _28  and  _29
REMARK   14  A    between atoms: _29  and  _30
REMARK   15  A    between atoms: _30  and  _31
REMARK   16  A    between atoms: _40  and  _42
REMARK   17  A    between atoms: _42  and  _43
REMARK   18  A    between atoms: _45  and  _47
REMARK   19  A    between atoms: _47  and  _48
REMARK   20  A    between atoms: _47  and  _50
REMARK   21  A    between atoms: _52  and  _54
REMARK   22  A    between atoms: _54  and  _55
REMARK   23  A    between atoms: _54  and  _57
REMARK   24  A    between atoms: _60  and  _62
REMARK   25  A    between atoms: _62  and  _63
REMARK   26  A    between atoms: _62  and  _65
REMARK   27  A    between atoms: _65  and  _66
REMARK   28  A    between atoms: _71  and  _72
REMARK   29  A    between atoms: _74  and  _76
REMARK   30  A    between atoms: _76  and  _77
REMARK   31  A    between atoms: _76  and  _79
REMARK   32  A    between atoms: _79  and  _80
REMARK   33  A    between atoms: _85  and  _87
REMARK   34  A    between atoms: _87  and  _88
REMARK   35  A    between atoms: _90  and  _92
REMARK   36  A    between atoms: _92  and  _93
REMARK   37  A    between atoms: _92  and  _95
REMARK   38  A    between atoms: _95  and  _96
REMARK   39  A    between atoms: _101  and  _103
REMARK   40  A    between atoms: _103  and  _104
REMARK   41  A    between atoms: _103  and  _106
REMARK   42  A    between atoms: _108  and  _110
REMARK   43  A    between atoms: _110  and  _111
REMARK   44  A    between atoms: _114  and  _116
REMARK   45  A    between atoms: _116  and  _117
REMARK   46  A    between atoms: _116  and  _119
REMARK   47  A    between atoms: _122  and  _124
REMARK   48  A    between atoms: _124  and  _125
REMARK   49  A    between atoms: _124  and  _127
REMARK   50  A    between atoms: _127  and  _128
REMARK   51  A    between atoms: _128  and  _129
REMARK   52  A    between atoms: _129  and  _130
REMARK   53  A    between atoms: _130  and  _131
REMARK   54  A    between atoms: _135  and  _137
REMARK   55  A    between atoms: _137  and  _138
REMARK   56  A    between atoms: _137  and  _140
REMARK   57  A    between atoms: _140  and  _141
REMARK   58  A    between atoms: _143  and  _145
REMARK   59  A    between atoms: _145  and  _146
REMARK   60  A    between atoms: _145  and  _148
REMARK   61  A    between atoms: _148  and  _149
REMARK   62  A    between atoms: _149  and  _150
REMARK   63  A    between atoms: _152  and  _154
REMARK   64  A    between atoms: _154  and  _155
REMARK   65  A    between atoms: _154  and  _157
REMARK   66  A    between atoms: _157  and  _158
REMARK   67  A    between atoms: _161  and  _163
REMARK   68  A    between atoms: _163  and  _164
REMARK   69  A    between atoms: _163  and  _166
REMARK   70  A    between atoms: _166  and  _167
REMARK   71  A    between atoms: _169  and  _171
REMARK   72  A    between atoms: _171  and  _172
REMARK   73  A    between atoms: _171  and  _174
REMARK   74  A    between atoms: _177  and  _179
REMARK   75  A    between atoms: _179  and  _180
REMARK   76  A    between atoms: _179  and  _182
REMARK   77  A    between atoms: _185  and  _187
REMARK   78  A    between atoms: _187  and  _188
REMARK   79  A    between atoms: _187  and  _190
REMARK   80  A    between atoms: _190  and  _191
REMARK   81  A    between atoms: _195  and  _196
REMARK   82  A    between atoms: _201  and  _203
REMARK   83  A    between atoms: _203  and  _204
REMARK   84  A    between atoms: _203  and  _206
REMARK   85  A    between atoms: _206  and  _207
REMARK   86  A    between atoms: _212  and  _213
REMARK   87  A    between atoms: _215  and  _217
REMARK   88  A    between atoms: _217  and  _218
REMARK   89  A    between atoms: _217  and  _220
REMARK   90  A    between atoms: _220  and  _221
REMARK   91  A    between atoms: _221  and  _222
REMARK   92  A    between atoms: _224  and  _226
REMARK   93  A    between atoms: _226  and  _227
REMARK   94  A    between atoms: _226  and  _229
REMARK   95  A    between atoms: _229  and  _230
REMARK   96  A    between atoms: _230  and  _231
REMARK   97  A    between atoms: _231  and  _232
REMARK   98  A    between atoms: _232  and  _233
REMARK   99  A    between atoms: _237  and  _239
REMARK  100  A    between atoms: _239  and  _240
REMARK  101  A    between atoms: _239  and  _242
REMARK  102  A    between atoms: _242  and  _243
REMARK  103  A    between atoms: _248  and  _250
REMARK  104  A    between atoms: _250  and  _251
REMARK  105  A    between atoms: _253  and  _255
REMARK  106  A    between atoms: _255  and  _256
REMARK  107  A    between atoms: _255  and  _258
REMARK  108  A    between atoms: _258  and  _259
REMARK  109  A    between atoms: _262  and  _264
REMARK  110  A    between atoms: _264  and  _265
REMARK  111  A    between atoms: _264  and  _267
REMARK  112  A    between atoms: _267  and  _268
REMARK  113  A    between atoms: _271  and  _273
REMARK  114  A    between atoms: _273  and  _274
REMARK  115  A    between atoms: _273  and  _276
REMARK  116  A    between atoms: _276  and  _277
REMARK  117  A    between atoms: _277  and  _278
REMARK  118  A    between atoms: _278  and  _279
REMARK  119  A    between atoms: _288  and  _290
REMARK  120  A    between atoms: _290  and  _291
REMARK  121  A    between atoms: _290  and  _293
REMARK  122  A    between atoms: _293  and  _294
REMARK  123  A    between atoms: _299  and  _301
REMARK  124  A    between atoms: _301  and  _302
REMARK  125  A    between atoms: _301  and  _304
REMARK  126  A    between atoms: _304  and  _305
REMARK  127  A    between atoms: _311  and  _313
REMARK  128  A    between atoms: _313  and  _314
REMARK  129  A    between atoms: _313  and  _316
REMARK  130  A    between atoms: _316  and  _317
REMARK  131  A    between atoms: _317  and  _318
REMARK  132  A    between atoms: _318  and  _319
REMARK  133  A    between atoms: _328  and  _330
REMARK  134  A    between atoms: _330  and  _331
REMARK  135  A    between atoms: _330  and  _333
REMARK  136  A    between atoms: _333  and  _334
REMARK  137  A    between atoms: _339  and  _341
REMARK  138  A    between atoms: _341  and  _342
REMARK  139  A    between atoms: _341  and  _344
REMARK  140  A    between atoms: _344  and  _345
REMARK  141  A    between atoms: _348  and  _350
REMARK  142  A    between atoms: _350  and  _351
REMARK  143  A    between atoms: _354  and  _356
REMARK  144  A    between atoms: _356  and  _357
REMARK  145  A    between atoms: _360  and  _362
REMARK  146  A    between atoms: _362  and  _363
REMARK  147  A    between atoms: _362  and  _365
REMARK  148  A    between atoms: _365  and  _366
REMARK  149  A    between atoms: _366  and  _367
REMARK  150  A    between atoms: _367  and  _368
REMARK  151  A    between atoms: _377  and  _379
REMARK  152  A    between atoms: _379  and  _380
REMARK  153  A    between atoms: _379  and  _382
REMARK  154  A    between atoms: _382  and  _383
REMARK  155  A    between atoms: _388  and  _390
REMARK  156  A    between atoms: _390  and  _391
REMARK  157  A    between atoms: _390  and  _393
REMARK  158  A    between atoms: _395  and  _397
REMARK  159  A    between atoms: _397  and  _398
REMARK  160  A    between atoms: _397  and  _400
REMARK  161  A    between atoms: _400  and  _401
REMARK  162  A    between atoms: _401  and  _402
REMARK  163  A    between atoms: _404  and  _406
REMARK  164  A    between atoms: _406  and  _407
REMARK  165  A    between atoms: _406  and  _409
REMARK  166  A    between atoms: _409  and  _410
REMARK  167  A    between atoms: _413  and  _415
REMARK  168  A    between atoms: _415  and  _416
REMARK  169  A    between atoms: _415  and  _418
REMARK  170  A    between atoms: _418  and  _419
REMARK  171  A    between atoms: _422  and  _424
REMARK  172  A    between atoms: _424  and  _425
REMARK  173  A    between atoms: _424  and  _427
REMARK  174  A    between atoms: _427  and  _428
REMARK  175  A    between atoms: _428  and  _429
REMARK  176  A    between atoms: _429  and  _430
REMARK  177  A    between atoms: _430  and  _431
REMARK  178  A    between atoms: _435  and  _437
REMARK  179  A    between atoms: _437  and  _438
REMARK  180  A    between atoms: _437  and  _440
REMARK  181  A    between atoms: _443  and  _445
REMARK  182  A    between atoms: _445  and  _446
REMARK  183  A    between atoms: _449  and  _451
REMARK  184  A    between atoms: _451  and  _452
REMARK  185  A    between atoms: _451  and  _454
REMARK  186  A    between atoms: _454  and  _455
REMARK  187  A    between atoms: _458  and  _460
REMARK  188  A    between atoms: _460  and  _461
REMARK  189  A    between atoms: _460  and  _463
REMARK  190  A    between atoms: _463  and  _464
REMARK  191  A    between atoms: _470  and  _472
REMARK  192  A    between atoms: _472  and  _473
REMARK  193  A    between atoms: _472  and  _475
REMARK  194  A    between atoms: _475  and  _476
REMARK  195  A    between atoms: _479  and  _481
REMARK  196  A    between atoms: _481  and  _482
REMARK  197  A    between atoms: _485  and  _487
REMARK  198  A    between atoms: _487  and  _488
REMARK  199  A    between atoms: _487  and  _490
REMARK  200  A    between atoms: _490  and  _491
REMARK  201  A    between atoms: _491  and  _492
REMARK  202  A    between atoms: _492  and  _493
REMARK  203  A    between atoms: _502  and  _504
REMARK  204  A    between atoms: _504  and  _505
REMARK  205  A    between atoms: _504  and  _507
REMARK  206  A    between atoms: _507  and  _508
REMARK  207  A    between atoms: _511  and  _513
REMARK  208  A    between atoms: _513  and  _514
REMARK  209  A    between atoms: _513  and  _516
REMARK  210  A    between atoms: _516  and  _517
REMARK  211  A    between atoms: _517  and  _518
REMARK  212  A    between atoms: _520  and  _522
REMARK  213  A    between atoms: _522  and  _523
REMARK  214  A    between atoms: _522  and  _525
REMARK  215  A    between atoms: _525  and  _526
REMARK  216  A    between atoms: _531  and  _532
REMARK  217  A    between atoms: _534  and  _536
REMARK  218  A    between atoms: _536  and  _537
REMARK  219  A    between atoms: _536  and  _539
REMARK  220  A    between atoms: _539  and  _540
REMARK  221  A    between atoms: _543  and  _545
REMARK  222  A    between atoms: _545  and  _546
REMARK  223  A    between atoms: _545  and  _548
REMARK  224  A    between atoms: _548  and  _549
REMARK  225  A    between atoms: _549  and  _550
REMARK  226  A    between atoms: _550  and  _551
REMARK  227  A    between atoms: _551  and  _552
REMARK  228  A    between atoms: _556  and  _558
REMARK  229  A    between atoms: _558  and  _559
REMARK  230  A    between atoms: _558  and  _561
REMARK  231  A    between atoms: _561  and  _562
REMARK  232  A    between atoms: _562  and  _563
REMARK  233  A    between atoms: _566  and  _568
REMARK  234  A    between atoms: _568  and  _569
REMARK  235  A    between atoms: _568  and  _571
REMARK  236  A    between atoms: _571  and  _572
REMARK  237  A    between atoms: _577  and  _578
REMARK  238  A    between atoms: _580  and  _582
REMARK  239  A    between atoms: _582  and  _583
REMARK  240  A    between atoms: _582  and  _585
REMARK  241  A    between atoms: _585  and  _586
REMARK  242  A    between atoms: _591  and  _592
REMARK                            x       y       z     vdW  Elec       q    Type
REMARK                         _______ _______ _______ _____ _____    ______ ____
ROOT
ATOM      1  O   HOH     1      16.133  76.555  -3.497  0.00  0.00    +0.000 OA
ENDROOT
TORSDOF 0
REMARK  Name = ../refined-set-2016/3zxz/3zxz_pocket.pdb
REMARK  242 active torsions:
REMARK  status: ('A' for Active; 'I' for Inactive)
REMARK    1  A    between atoms: _1  and  _3
REMARK    2  A    between atoms: _3  and  _4
REMARK    3  A    between atoms: _3  and  _6
REMARK    4  A    between atoms: _9  and  _11
REMARK    5  A    between atoms: _11  and  _12
REMARK    6  A    between atoms: _11  and  _14
REMARK    7  A    between atoms: _14  and  _15
REMARK    8  A    between atoms: _18  and  _20
REMARK    9  A    between atoms: _20  and  _21
REMARK   10  A    between atoms: _23  and  _25
REMARK   11  A    between atoms: _25  and  _26
REMARK   12  A    between atoms: _25  and  _28
REMARK   13  A    between atoms: _28  and  _29
REMARK   14  A    between atoms: _29  and  _30
REMARK   15  A    between atoms: _30  and  _31
REMARK   16  A    between atoms: _40  and  _42
REMARK   17  A    between atoms: _42  and  _43
REMARK   18  A    between atoms: _45  and  _47
REMARK   19  A    between atoms: _47  and  _48
REMARK   20  A    between atoms: _47  and  _50
REMARK   21  A    between atoms: _52  and  _54
REMARK   22  A    between atoms: _54  and  _55
REMARK   23  A    between atoms: _54  and  _57
REMARK   24  A    between atoms: _60  and  _62
REMARK   25  A    between atoms: _62  and  _63
REMARK   26  A    between atoms: _62  and  _65
REMARK   27  A    between atoms: _65  and  _66
REMARK   28  A    between atoms: _71  and  _72
REMARK   29  A    between atoms: _74  and  _76
REMARK   30  A    between atoms: _76  and  _77
REMARK   31  A    between atoms: _76  and  _79
REMARK   32  A    between atoms: _79  and  _80
REMARK   33  A    between atoms: _85  and  _87
REMARK   34  A    between atoms: _87  and  _88
REMARK   35  A    between atoms: _90  and  _92
REMARK   36  A    between atoms: _92  and  _93
REMARK   37  A    between atoms: _92  and  _95
REMARK   38  A    between atoms: _95  and  _96
REMARK   39  A    between atoms: _101  and  _103
REMARK   40  A    between atoms: _103  and  _104
REMARK   41  A    between atoms: _103  and  _106
REMARK   42  A    between atoms: _108  and  _110
REMARK   43  A    between atoms: _110  and  _111
REMARK   44  A    between atoms: _114  and  _116
REMARK   45  A    between atoms: _116  and  _117
REMARK   46  A    between atoms: _116  and  _119
REMARK   47  A    between atoms: _122  and  _124
REMARK   48  A    between atoms: _124  and  _125
REMARK   49  A    between atoms: _124  and  _127
REMARK   50  A    between atoms: _127  and  _128
REMARK   51  A    between atoms: _128  and  _129
REMARK   52  A    between atoms: _129  and  _130
REMARK   53  A    between atoms: _130  and  _131
REMARK   54  A    between atoms: _135  and  _137
REMARK   55  A    between atoms: _137  and  _138
REMARK   56  A    between atoms: _137  and  _140
REMARK   57  A    between atoms: _140  and  _141
REMARK   58  A    between atoms: _143  and  _145
REMARK   59  A    between atoms: _145  and  _146
REMARK   60  A    between atoms: _145  and  _148
REMARK   61  A    between atoms: _148  and  _149
REMARK   62  A    between atoms: _149  and  _150
REMARK   63  A    between atoms: _152  and  _154
REMARK   64  A    between atoms: _154  and  _155
REMARK   65  A    between atoms: _154  and  _157
REMARK   66  A    between atoms: _157  and  _158
REMARK   67  A    between atoms: _161  and  _163
REMARK   68  A    between atoms: _163  and  _164
REMARK   69  A    between atoms: _163  and  _166
REMARK   70  A    between atoms: _166  and  _167
REMARK   71  A    between atoms: _169  and  _171
REMARK   72  A    between atoms: _171  and  _172
REMARK   73  A    between atoms: _171  and  _174
REMARK   74  A    between atoms: _177  and  _179
REMARK   75  A    between atoms: _179  and  _180
REMARK   76  A    between atoms: _179  and  _182
REMARK   77  A    between atoms: _185  and  _187
REMARK   78  A    between atoms: _187  and  _188
REMARK   79  A    between atoms: _187  and  _190
REMARK   80  A    between atoms: _190  and  _191
REMARK   81  A    between atoms: _195  and  _196
REMARK   82  A    between atoms: _201  and  _203
REMARK   83  A    between atoms: _203  and  _204
REMARK   84  A    between atoms: _203  and  _206
REMARK   85  A    between atoms: _206  and  _207
REMARK   86  A    between atoms: _212  and  _213
REMARK   87  A    between atoms: _215  and  _217
REMARK   88  A    between atoms: _217  and  _218
REMARK   89  A    between atoms: _217  and  _220
REMARK   90  A    between atoms: _220  and  _221
REMARK   91  A    between atoms: _221  and  _222
REMARK   92  A    between atoms: _224  and  _226
REMARK   93  A    between atoms: _226  and  _227
REMARK   94  A    between atoms: _226  and  _229
REMARK   95  A    between atoms: _229  and  _230
REMARK   96  A    between atoms: _230  and  _231
REMARK   97  A    between atoms: _231  and  _232
REMARK   98  A    between atoms: _232  and  _233
REMARK   99  A    between atoms: _237  and  _239
REMARK  100  A    between atoms: _239  and  _240
REMARK  101  A    between atoms: _239  and  _242
REMARK  102  A    between atoms: _242  and  _243
REMARK  103  A    between atoms: _248  and  _250
REMARK  104  A    between atoms: _250  and  _251
REMARK  105  A    between atoms: _253  and  _255
REMARK  106  A    between atoms: _255  and  _256
REMARK  107  A    between atoms: _255  and  _258
REMARK  108  A    between atoms: _258  and  _259
REMARK  109  A    between atoms: _262  and  _264
REMARK  110  A    between atoms: _264  and  _265
REMARK  111  A    between atoms: _264  and  _267
REMARK  112  A    between atoms: _267  and  _268
REMARK  113  A    between atoms: _271  and  _273
REMARK  114  A    between atoms: _273  and  _274
REMARK  115  A    between atoms: _273  and  _276
REMARK  116  A    between atoms: _276  and  _277
REMARK  117  A    between atoms: _277  and  _278
REMARK  118  A    between atoms: _278  and  _279
REMARK  119  A    between atoms: _288  and  _290
REMARK  120  A    between atoms: _290  and  _291
REMARK  121  A    between atoms: _290  and  _293
REMARK  122  A    between atoms: _293  and  _294
REMARK  123  A    between atoms: _299  and  _301
REMARK  124  A    between atoms: _301  and  _302
REMARK  125  A    between atoms: _301  and  _304
REMARK  126  A    between atoms: _304  and  _305
REMARK  127  A    between atoms: _311  and  _313
REMARK  128  A    between atoms: _313  and  _314
REMARK  129  A    between atoms: _313  and  _316
REMARK  130  A    between atoms: _316  and  _317
REMARK  131  A    between atoms: _317  and  _318
REMARK  132  A    between atoms: _318  and  _319
REMARK  133  A    between atoms: _328  and  _330
REMARK  134  A    between atoms: _330  and  _331
REMARK  135  A    between atoms: _330  and  _333
REMARK  136  A    between atoms: _333  and  _334
REMARK  137  A    between atoms: _339  and  _341
REMARK  138  A    between atoms: _341  and  _342
REMARK  139  A    between atoms: _341  and  _344
REMARK  140  A    between atoms: _344  and  _345
REMARK  141  A    between atoms: _348  and  _350
REMARK  142  A    between atoms: _350  and  _351
REMARK  143  A    between atoms: _354  and  _356
REMARK  144  A    between atoms: _356  and  _357
REMARK  145  A    between atoms: _360  and  _362
REMARK  146  A    between atoms: _362  and  _363
REMARK  147  A    between atoms: _362  and  _365
REMARK  148  A    between atoms: _365  and  _366
REMARK  149  A    between atoms: _366  and  _367
REMARK  150  A    between atoms: _367  and  _368
REMARK  151  A    between atoms: _377  and  _379
REMARK  152  A    between atoms: _379  and  _380
REMARK  153  A    between atoms: _379  and  _382
REMARK  154  A    between atoms: _382  and  _383
REMARK  155  A    between atoms: _388  and  _390
REMARK  156  A    between atoms: _390  and  _391
REMARK  157  A    between atoms: _390  and  _393
REMARK  158  A    between atoms: _395  and  _397
REMARK  159  A    between atoms: _397  and  _398
REMARK  160  A    between atoms: _397  and  _400
REMARK  161  A    between atoms: _400  and  _401
REMARK  162  A    between atoms: _401  and  _402
REMARK  163  A    between atoms: _404  and  _406
REMARK  164  A    between atoms: _406  and  _407
REMARK  165  A    between atoms: _406  and  _409
REMARK  166  A    between atoms: _409  and  _410
REMARK  167  A    between atoms: _413  and  _415
REMARK  168  A    between atoms: _415  and  _416
REMARK  169  A    between atoms: _415  and  _418
REMARK  170  A    between atoms: _418  and  _419
REMARK  171  A    between atoms: _422  and  _424
REMARK  172  A    between atoms: _424  and  _425
REMARK  173  A    between atoms: _424  and  _427
REMARK  174  A    between atoms: _427  and  _428
REMARK  175  A    between atoms: _428  and  _429
REMARK  176  A    between atoms: _429  and  _430
REMARK  177  A    between atoms: _430  and  _431
REMARK  178  A    between atoms: _435  and  _437
REMARK  179  A    between atoms: _437  and  _438
REMARK  180  A    between atoms: _437  and  _440
REMARK  181  A    between atoms: _443  and  _445
REMARK  182  A    between atoms: _445  and  _446
REMARK  183  A    between atoms: _449  and  _451
REMARK  184  A    between atoms: _451  and  _452
REMARK  185  A    between atoms: _451  and  _454
REMARK  186  A    between atoms: _454  and  _455
REMARK  187  A    between atoms: _458  and  _460
REMARK  188  A    between atoms: _460  and  _461
REMARK  189  A    between atoms: _460  and  _463
REMARK  190  A    between atoms: _463  and  _464
REMARK  191  A    between atoms: _470  and  _472
REMARK  192  A    between atoms: _472  and  _473
REMARK  193  A    between atoms: _472  and  _475
REMARK  194  A    between atoms: _475  and  _476
REMARK  195  A    between atoms: _479  and  _481
REMARK  196  A    between atoms: _481  and  _482
REMARK  197  A    between atoms: _485  and  _487
REMARK  198  A    between atoms: _487  and  _488
REMARK  199  A    between atoms: _487  and  _490
REMARK  200  A    between atoms: _490  and  _491
REMARK  201  A    between atoms: _491  and  _492
REMARK  202  A    between atoms: _492  and  _493
REMARK  203  A    between atoms: _502  and  _504
REMARK  204  A    between atoms: _504  and  _505
REMARK  205  A    between atoms: _504  and  _507
REMARK  206  A    between atoms: _507  and  _508
REMARK  207  A    between atoms: _511  and  _513
REMARK  208  A    between atoms: _513  and  _514
REMARK  209  A    between atoms: _513  and  _516
REMARK  210  A    between atoms: _516  and  _517
REMARK  211  A    between atoms: _517  and  _518
REMARK  212  A    between atoms: _520  and  _522
REMARK  213  A    between atoms: _522  and  _523
REMARK  214  A    between atoms: _522  and  _525
REMARK  215  A    between atoms: _525  and  _526
REMARK  216  A    between atoms: _531  and  _532
REMARK  217  A    between atoms: _534  and  _536
REMARK  218  A    between atoms: _536  and  _537
REMARK  219  A    between atoms: _536  and  _539
REMARK  220  A    between atoms: _539  and  _540
REMARK  221  A    between atoms: _543  and  _545
REMARK  222  A    between atoms: _545  and  _546
REMARK  223  A    between atoms: _545  and  _548
REMARK  224  A    between atoms: _548  and  _549
REMARK  225  A    between atoms: _549  and  _550
REMARK  226  A    between atoms: _550  and  _551
REMARK  227  A    between atoms: _551  and  _552
REMARK  228  A    between atoms: _556  and  _558
REMARK  229  A    between atoms: _558  and  _559
REMARK  230  A    between atoms: _558  and  _561
REMARK  231  A    between atoms: _561  and  _562
REMARK  232  A    between atoms: _562  and  _563
REMARK  233  A    between atoms: _566  and  _568
REMARK  234  A    between atoms: _568  and  _569
REMARK  235  A    between atoms: _568  and  _571
REMARK  236  A    between atoms: _571  and  _572
REMARK  237  A    between atoms: _577  and  _578
REMARK  238  A    between atoms: _580  and  _582
REMARK  239  A    between atoms: _582  and  _583
REMARK  240  A    between atoms: _582  and  _585
REMARK  241  A    between atoms: _585  and  _586
REMARK  242  A    between atoms: _591  and  _592
REMARK                            x       y       z     vdW  Elec       q    Type
REMARK                         _______ _______ _______ _____ _____    ______ ____
ROOT
ATOM      1  O   HOH     1      11.317  82.565  -2.862  0.00  0.00    +0.000 OA
ENDROOT
TORSDOF 0
