REMARK  Name = ../refined-set-2016/2qdt/2qdt_pocket.pdb
REMARK  112 active torsions:
REMARK  status: ('A' for Active; 'I' for Inactive)
REMARK    1  A    between atoms: _1  and  _3
REMARK    2  A    between atoms: _3  and  _4
REMARK    3  A    between atoms: _3  and  _6
REMARK    4  A    between atoms: _6  and  _7
REMARK    5  A    between atoms: _12  and  _13
REMARK    6  A    between atoms: _15  and  _17
REMARK    7  A    between atoms: _17  and  _18
REMARK    8  A    between atoms: _17  and  _20
REMARK    9  A    between atoms: _23  and  _25
REMARK   10  A    between atoms: _25  and  _26
REMARK   11  A    between atoms: _25  and  _28
REMARK   12  A    between atoms: _28  and  _29
REMARK   13  A    between atoms: _39  and  _41
REMARK   14  A    between atoms: _41  and  _42
REMARK   15  A    between atoms: _41  and  _44
REMARK   16  A    between atoms: _44  and  _45
REMARK   17  A    between atoms: _48  and  _50
REMARK   18  A    between atoms: _50  and  _51
REMARK   19  A    between atoms: _50  and  _53
REMARK   20  A    between atoms: _53  and  _54
REMARK   21  A    between atoms: _54  and  _55
REMARK   22  A    between atoms: _57  and  _59
REMARK   23  A    between atoms: _59  and  _60
REMARK   24  A    between atoms: _59  and  _62
REMARK   25  A    between atoms: _62  and  _63
REMARK   26  A    between atoms: _67  and  ZN_298
REMARK   27  A    between atoms: _68  and  _70
REMARK   28  A    between atoms: _70  and  _71
REMARK   29  A    between atoms: _70  and  _73
REMARK   30  A    between atoms: _73  and  _74
REMARK   31  A    between atoms: _75  and  ZN_298
REMARK   32  A    between atoms: _79  and  _81
REMARK   33  A    between atoms: _81  and  _82
REMARK   34  A    between atoms: _85  and  _87
REMARK   35  A    between atoms: _96  and  _97
REMARK   36  A    between atoms: _105  and  _107
REMARK   37  A    between atoms: _107  and  _108
REMARK   38  A    between atoms: _107  and  _110
REMARK   39  A    between atoms: _110  and  _111
REMARK   40  A    between atoms: _114  and  _116
REMARK   41  A    between atoms: _116  and  _117
REMARK   42  A    between atoms: _116  and  _119
REMARK   43  A    between atoms: _119  and  _120
REMARK   44  A    between atoms: _126  and  _128
REMARK   45  A    between atoms: _128  and  _129
REMARK   46  A    between atoms: _128  and  _131
REMARK   47  A    between atoms: _131  and  _132
REMARK   48  A    between atoms: _135  and  _137
REMARK   49  A    between atoms: _137  and  _138
REMARK   50  A    between atoms: _137  and  _140
REMARK   51  A    between atoms: _140  and  _141
REMARK   52  A    between atoms: _145  and  ZN_298
REMARK   53  A    between atoms: _146  and  _148
REMARK   54  A    between atoms: _148  and  _149
REMARK   55  A    between atoms: _148  and  _151
REMARK   56  A    between atoms: _151  and  _152
REMARK   57  A    between atoms: _155  and  _157
REMARK   58  A    between atoms: _157  and  _158
REMARK   59  A    between atoms: _157  and  _160
REMARK   60  A    between atoms: _160  and  _161
REMARK   61  A    between atoms: _164  and  _166
REMARK   62  A    between atoms: _166  and  _167
REMARK   63  A    between atoms: _166  and  _169
REMARK   64  A    between atoms: _169  and  _170
REMARK   65  A    between atoms: _172  and  _174
REMARK   66  A    between atoms: _174  and  _175
REMARK   67  A    between atoms: _174  and  _177
REMARK   68  A    between atoms: _177  and  _178
REMARK   69  A    between atoms: _181  and  _183
REMARK   70  A    between atoms: _183  and  _184
REMARK   71  A    between atoms: _183  and  _186
REMARK   72  A    between atoms: _186  and  _187
REMARK   73  A    between atoms: _189  and  _191
REMARK   74  A    between atoms: _191  and  _192
REMARK   75  A    between atoms: _196  and  _197
REMARK   76  A    between atoms: _202  and  _204
REMARK   77  A    between atoms: _204  and  _205
REMARK   78  A    between atoms: _207  and  _209
REMARK   79  A    between atoms: _209  and  _210
REMARK   80  A    between atoms: _209  and  _212
REMARK   81  A    between atoms: _212  and  _213
REMARK   82  A    between atoms: _218  and  _219
REMARK   83  A    between atoms: _221  and  _223
REMARK   84  A    between atoms: _223  and  _224
REMARK   85  A    between atoms: _223  and  _226
REMARK   86  A    between atoms: _226  and  _227
REMARK   87  A    between atoms: _232  and  _233
REMARK   88  A    between atoms: _236  and  _237
REMARK   89  A    between atoms: _242  and  _244
REMARK   90  A    between atoms: _244  and  _245
REMARK   91  A    between atoms: _244  and  _247
REMARK   92  A    between atoms: _247  and  _248
REMARK   93  A    between atoms: _252  and  ZN_299
REMARK   94  A    between atoms: _253  and  _255
REMARK   95  A    between atoms: _255  and  _256
REMARK   96  A    between atoms: _259  and  _261
REMARK   97  A    between atoms: _261  and  _262
REMARK   98  A    between atoms: _261  and  _264
REMARK   99  A    between atoms: _264  and  _265
REMARK  100  A    between atoms: _270  and  _271
REMARK  101  A    between atoms: _273  and  _275
REMARK  102  A    between atoms: _275  and  _276
REMARK  103  A    between atoms: _275  and  _278
REMARK  104  A    between atoms: _278  and  _279
REMARK  105  A    between atoms: _279  and  _280
REMARK  106  A    between atoms: _280  and  _281
REMARK  107  A    between atoms: _281  and  _282
REMARK  108  A    between atoms: _286  and  _288
REMARK  109  A    between atoms: _288  and  _289
REMARK  110  A    between atoms: _288  and  _291
REMARK  111  A    between atoms: _291  and  _292
REMARK  112  A    between atoms: _292  and  _293
REMARK                            x       y       z     vdW  Elec       q    Type
REMARK                         _______ _______ _______ _____ _____    ______ ____
ROOT
ATOM      1  CG  TYR A   1      12.771  27.274  23.395  0.00  0.00    -0.020 A 
ATOM      2  CD2 TYR A   1      13.049  26.503  24.518  0.00  0.00    -0.001 A 
ATOM      3  CE2 TYR A   1      12.634  26.905  25.766  0.00  0.00    +0.036 A 
ATOM      4  CZ  TYR A   1      11.958  28.093  25.910  0.00  0.00    +0.134 A 
ATOM      5  CE1 TYR A   1      11.686  28.884  24.817  0.00  0.00    +0.036 A 
ATOM      6  CD1 TYR A   1      12.082  28.476  23.566  0.00  0.00    -0.001 A 
ENDROOT
BRANCH   4   7
ATOM      7  OH  TYR A   1      11.557  28.535  27.154  0.00  0.00    -0.506 OA
ATOM      8  HH  TYR A   1      11.817  27.869  27.839  0.00  0.00    +0.292 HD
ENDBRANCH   4   7
BRANCH   1   9
ATOM      9  CB  TYR A   1      13.205  26.833  22.051  0.00  0.00    +0.051 C 
BRANCH   9  10
ATOM     10  CA  TYR A   1      12.761  25.406  21.742  0.00  0.00    +0.137 C 
BRANCH  10  11
ATOM     11  N   TYR A   1      13.151  25.084  20.388  0.00  0.00    -0.239 NA
ATOM     12  H   TYR A   1      13.363  25.854  19.722  0.00  0.00    +0.142 HD
ENDBRANCH  10  11
BRANCH  10  13
ATOM     13  C   TYR A   1      11.229  25.252  21.886  0.00  0.00    +0.224 C 
ATOM     14  O   TYR A   1      10.464  26.148  21.521  0.00  0.00    -0.287 OA
ENDBRANCH  10  13
ENDBRANCH   9  10
ENDBRANCH   1   9
TORSDOF 5
REMARK  Name = ../refined-set-2016/2qdt/2qdt_pocket.pdb
REMARK  112 active torsions:
REMARK  status: ('A' for Active; 'I' for Inactive)
REMARK    1  A    between atoms: _1  and  _3
REMARK    2  A    between atoms: _3  and  _4
REMARK    3  A    between atoms: _3  and  _6
REMARK    4  A    between atoms: _6  and  _7
REMARK    5  A    between atoms: _12  and  _13
REMARK    6  A    between atoms: _15  and  _17
REMARK    7  A    between atoms: _17  and  _18
REMARK    8  A    between atoms: _17  and  _20
REMARK    9  A    between atoms: _23  and  _25
REMARK   10  A    between atoms: _25  and  _26
REMARK   11  A    between atoms: _25  and  _28
REMARK   12  A    between atoms: _28  and  _29
REMARK   13  A    between atoms: _39  and  _41
REMARK   14  A    between atoms: _41  and  _42
REMARK   15  A    between atoms: _41  and  _44
REMARK   16  A    between atoms: _44  and  _45
REMARK   17  A    between atoms: _48  and  _50
REMARK   18  A    between atoms: _50  and  _51
REMARK   19  A    between atoms: _50  and  _53
REMARK   20  A    between atoms: _53  and  _54
REMARK   21  A    between atoms: _54  and  _55
REMARK   22  A    between atoms: _57  and  _59
REMARK   23  A    between atoms: _59  and  _60
REMARK   24  A    between atoms: _59  and  _62
REMARK   25  A    between atoms: _62  and  _63
REMARK   26  A    between atoms: _67  and  ZN_298
REMARK   27  A    between atoms: _68  and  _70
REMARK   28  A    between atoms: _70  and  _71
REMARK   29  A    between atoms: _70  and  _73
REMARK   30  A    between atoms: _73  and  _74
REMARK   31  A    between atoms: _75  and  ZN_298
REMARK   32  A    between atoms: _79  and  _81
REMARK   33  A    between atoms: _81  and  _82
REMARK   34  A    between atoms: _85  and  _87
REMARK   35  A    between atoms: _96  and  _97
REMARK   36  A    between atoms: _105  and  _107
REMARK   37  A    between atoms: _107  and  _108
REMARK   38  A    between atoms: _107  and  _110
REMARK   39  A    between atoms: _110  and  _111
REMARK   40  A    between atoms: _114  and  _116
REMARK   41  A    between atoms: _116  and  _117
REMARK   42  A    between atoms: _116  and  _119
REMARK   43  A    between atoms: _119  and  _120
REMARK   44  A    between atoms: _126  and  _128
REMARK   45  A    between atoms: _128  and  _129
REMARK   46  A    between atoms: _128  and  _131
REMARK   47  A    between atoms: _131  and  _132
REMARK   48  A    between atoms: _135  and  _137
REMARK   49  A    between atoms: _137  and  _138
REMARK   50  A    between atoms: _137  and  _140
REMARK   51  A    between atoms: _140  and  _141
REMARK   52  A    between atoms: _145  and  ZN_298
REMARK   53  A    between atoms: _146  and  _148
REMARK   54  A    between atoms: _148  and  _149
REMARK   55  A    between atoms: _148  and  _151
REMARK   56  A    between atoms: _151  and  _152
REMARK   57  A    between atoms: _155  and  _157
REMARK   58  A    between atoms: _157  and  _158
REMARK   59  A    between atoms: _157  and  _160
REMARK   60  A    between atoms: _160  and  _161
REMARK   61  A    between atoms: _164  and  _166
REMARK   62  A    between atoms: _166  and  _167
REMARK   63  A    between atoms: _166  and  _169
REMARK   64  A    between atoms: _169  and  _170
REMARK   65  A    between atoms: _172  and  _174
REMARK   66  A    between atoms: _174  and  _175
REMARK   67  A    between atoms: _174  and  _177
REMARK   68  A    between atoms: _177  and  _178
REMARK   69  A    between atoms: _181  and  _183
REMARK   70  A    between atoms: _183  and  _184
REMARK   71  A    between atoms: _183  and  _186
REMARK   72  A    between atoms: _186  and  _187
REMARK   73  A    between atoms: _189  and  _191
REMARK   74  A    between atoms: _191  and  _192
REMARK   75  A    between atoms: _196  and  _197
REMARK   76  A    between atoms: _202  and  _204
REMARK   77  A    between atoms: _204  and  _205
REMARK   78  A    between atoms: _207  and  _209
REMARK   79  A    between atoms: _209  and  _210
REMARK   80  A    between atoms: _209  and  _212
REMARK   81  A    between atoms: _212  and  _213
REMARK   82  A    between atoms: _218  and  _219
REMARK   83  A    between atoms: _221  and  _223
REMARK   84  A    between atoms: _223  and  _224
REMARK   85  A    between atoms: _223  and  _226
REMARK   86  A    between atoms: _226  and  _227
REMARK   87  A    between atoms: _232  and  _233
REMARK   88  A    between atoms: _236  and  _237
REMARK   89  A    between atoms: _242  and  _244
REMARK   90  A    between atoms: _244  and  _245
REMARK   91  A    between atoms: _244  and  _247
REMARK   92  A    between atoms: _247  and  _248
REMARK   93  A    between atoms: _252  and  ZN_299
REMARK   94  A    between atoms: _253  and  _255
REMARK   95  A    between atoms: _255  and  _256
REMARK   96  A    between atoms: _259  and  _261
REMARK   97  A    between atoms: _261  and  _262
REMARK   98  A    between atoms: _261  and  _264
REMARK   99  A    between atoms: _264  and  _265
REMARK  100  A    between atoms: _270  and  _271
REMARK  101  A    between atoms: _273  and  _275
REMARK  102  A    between atoms: _275  and  _276
REMARK  103  A    between atoms: _275  and  _278
REMARK  104  A    between atoms: _278  and  _279
REMARK  105  A    between atoms: _279  and  _280
REMARK  106  A    between atoms: _280  and  _281
REMARK  107  A    between atoms: _281  and  _282
REMARK  108  A    between atoms: _286  and  _288
REMARK  109  A    between atoms: _288  and  _289
REMARK  110  A    between atoms: _288  and  _291
REMARK  111  A    between atoms: _291  and  _292
REMARK  112  A    between atoms: _292  and  _293
REMARK                            x       y       z     vdW  Elec       q    Type
REMARK                         _______ _______ _______ _____ _____    ______ ____
ROOT
ATOM      1  CA  VAL A   1       7.114  24.843  25.424  0.00  0.00    +0.133 C 
ENDROOT
BRANCH   1   2
ATOM      2  CB  VAL A   1       7.091  26.390  25.481  0.00  0.00    +0.023 C 
ATOM      3  CG2 VAL A   1       8.493  26.993  25.376  0.00  0.00    +0.002 C 
ATOM      4  CG1 VAL A   1       6.221  26.925  24.374  0.00  0.00    +0.002 C 
ENDBRANCH   1   2
BRANCH   1   5
ATOM      5  N   VAL A   1       7.633  24.373  24.133  0.00  0.00    -0.239 NA
ATOM      6  H   VAL A   1       6.980  24.301  23.327  0.00  0.00    +0.142 HD
ENDBRANCH   1   5
BRANCH   1   7
ATOM      7  C   VAL A   1       5.684  24.325  25.646  0.00  0.00    +0.224 C 
ATOM      8  O   VAL A   1       5.017  23.904  24.706  0.00  0.00    -0.287 OA
ENDBRANCH   1   7
TORSDOF 3
REMARK  Name = ../refined-set-2016/2qdt/2qdt_pocket.pdb
REMARK  112 active torsions:
REMARK  status: ('A' for Active; 'I' for Inactive)
REMARK    1  A    between atoms: _1  and  _3
REMARK    2  A    between atoms: _3  and  _4
REMARK    3  A    between atoms: _3  and  _6
REMARK    4  A    between atoms: _6  and  _7
REMARK    5  A    between atoms: _12  and  _13
REMARK    6  A    between atoms: _15  and  _17
REMARK    7  A    between atoms: _17  and  _18
REMARK    8  A    between atoms: _17  and  _20
REMARK    9  A    between atoms: _23  and  _25
REMARK   10  A    between atoms: _25  and  _26
REMARK   11  A    between atoms: _25  and  _28
REMARK   12  A    between atoms: _28  and  _29
REMARK   13  A    between atoms: _39  and  _41
REMARK   14  A    between atoms: _41  and  _42
REMARK   15  A    between atoms: _41  and  _44
REMARK   16  A    between atoms: _44  and  _45
REMARK   17  A    between atoms: _48  and  _50
REMARK   18  A    between atoms: _50  and  _51
REMARK   19  A    between atoms: _50  and  _53
REMARK   20  A    between atoms: _53  and  _54
REMARK   21  A    between atoms: _54  and  _55
REMARK   22  A    between atoms: _57  and  _59
REMARK   23  A    between atoms: _59  and  _60
REMARK   24  A    between atoms: _59  and  _62
REMARK   25  A    between atoms: _62  and  _63
REMARK   26  A    between atoms: _67  and  ZN_298
REMARK   27  A    between atoms: _68  and  _70
REMARK   28  A    between atoms: _70  and  _71
REMARK   29  A    between atoms: _70  and  _73
REMARK   30  A    between atoms: _73  and  _74
REMARK   31  A    between atoms: _75  and  ZN_298
REMARK   32  A    between atoms: _79  and  _81
REMARK   33  A    between atoms: _81  and  _82
REMARK   34  A    between atoms: _85  and  _87
REMARK   35  A    between atoms: _96  and  _97
REMARK   36  A    between atoms: _105  and  _107
REMARK   37  A    between atoms: _107  and  _108
REMARK   38  A    between atoms: _107  and  _110
REMARK   39  A    between atoms: _110  and  _111
REMARK   40  A    between atoms: _114  and  _116
REMARK   41  A    between atoms: _116  and  _117
REMARK   42  A    between atoms: _116  and  _119
REMARK   43  A    between atoms: _119  and  _120
REMARK   44  A    between atoms: _126  and  _128
REMARK   45  A    between atoms: _128  and  _129
REMARK   46  A    between atoms: _128  and  _131
REMARK   47  A    between atoms: _131  and  _132
REMARK   48  A    between atoms: _135  and  _137
REMARK   49  A    between atoms: _137  and  _138
REMARK   50  A    between atoms: _137  and  _140
REMARK   51  A    between atoms: _140  and  _141
REMARK   52  A    between atoms: _145  and  ZN_298
REMARK   53  A    between atoms: _146  and  _148
REMARK   54  A    between atoms: _148  and  _149
REMARK   55  A    between atoms: _148  and  _151
REMARK   56  A    between atoms: _151  and  _152
REMARK   57  A    between atoms: _155  and  _157
REMARK   58  A    between atoms: _157  and  _158
REMARK   59  A    between atoms: _157  and  _160
REMARK   60  A    between atoms: _160  and  _161
REMARK   61  A    between atoms: _164  and  _166
REMARK   62  A    between atoms: _166  and  _167
REMARK   63  A    between atoms: _166  and  _169
REMARK   64  A    between atoms: _169  and  _170
REMARK   65  A    between atoms: _172  and  _174
REMARK   66  A    between atoms: _174  and  _175
REMARK   67  A    between atoms: _174  and  _177
REMARK   68  A    between atoms: _177  and  _178
REMARK   69  A    between atoms: _181  and  _183
REMARK   70  A    between atoms: _183  and  _184
REMARK   71  A    between atoms: _183  and  _186
REMARK   72  A    between atoms: _186  and  _187
REMARK   73  A    between atoms: _189  and  _191
REMARK   74  A    between atoms: _191  and  _192
REMARK   75  A    between atoms: _196  and  _197
REMARK   76  A    between atoms: _202  and  _204
REMARK   77  A    between atoms: _204  and  _205
REMARK   78  A    between atoms: _207  and  _209
REMARK   79  A    between atoms: _209  and  _210
REMARK   80  A    between atoms: _209  and  _212
REMARK   81  A    between atoms: _212  and  _213
REMARK   82  A    between atoms: _218  and  _219
REMARK   83  A    between atoms: _221  and  _223
REMARK   84  A    between atoms: _223  and  _224
REMARK   85  A    between atoms: _223  and  _226
REMARK   86  A    between atoms: _226  and  _227
REMARK   87  A    between atoms: _232  and  _233
REMARK   88  A    between atoms: _236  and  _237
REMARK   89  A    between atoms: _242  and  _244
REMARK   90  A    between atoms: _244  and  _245
REMARK   91  A    between atoms: _244  and  _247
REMARK   92  A    between atoms: _247  and  _248
REMARK   93  A    between atoms: _252  and  ZN_299
REMARK   94  A    between atoms: _253  and  _255
REMARK   95  A    between atoms: _255  and  _256
REMARK   96  A    between atoms: _259  and  _261
REMARK   97  A    between atoms: _261  and  _262
REMARK   98  A    between atoms: _261  and  _264
REMARK   99  A    between atoms: _264  and  _265
REMARK  100  A    between atoms: _270  and  _271
REMARK  101  A    between atoms: _273  and  _275
REMARK  102  A    between atoms: _275  and  _276
REMARK  103  A    between atoms: _275  and  _278
REMARK  104  A    between atoms: _278  and  _279
REMARK  105  A    between atoms: _279  and  _280
REMARK  106  A    between atoms: _280  and  _281
REMARK  107  A    between atoms: _281  and  _282
REMARK  108  A    between atoms: _286  and  _288
REMARK  109  A    between atoms: _288  and  _289
REMARK  110  A    between atoms: _288  and  _291
REMARK  111  A    between atoms: _291  and  _292
REMARK  112  A    between atoms: _292  and  _293
REMARK                            x       y       z     vdW  Elec       q    Type
REMARK                         _______ _______ _______ _____ _____    ______ ____
ROOT
ATOM      1  CG  TRP A   1       4.584  28.431  28.344  0.00  0.00    -0.002 A 
ATOM      2  CD1 TRP A   1       3.897  27.859  29.378  0.00  0.00    +0.068 A 
ATOM      3  NE1 TRP A   1       4.764  27.504  30.381  0.00  0.00    -0.352 N 
ATOM      4  HE1 TRP A   1       4.494  27.068  31.286  0.00  0.00    +0.166 HD
ATOM      5  CE2 TRP A   1       6.041  27.816  29.998  0.00  0.00    +0.056 A 
ATOM      6  CZ2 TRP A   1       7.261  27.645  30.681  0.00  0.00    +0.017 A 
ATOM      7  CH2 TRP A   1       8.412  28.067  30.053  0.00  0.00    +0.001 A 
ATOM      8  CZ3 TRP A   1       8.377  28.648  28.783  0.00  0.00    +0.000 A 
ATOM      9  CE3 TRP A   1       7.150  28.827  28.097  0.00  0.00    +0.001 A 
ATOM     10  CD2 TRP A   1       5.965  28.409  28.721  0.00  0.00    +0.013 A 
ENDROOT
BRANCH   1  11
ATOM     11  CB  TRP A   1       4.034  28.913  27.039  0.00  0.00    +0.053 C 
BRANCH  11  12
ATOM     12  CA  TRP A   1       2.565  29.351  27.042  0.00  0.00    +0.137 C 
BRANCH  12  13
ATOM     13  N   TRP A   1       1.658  28.212  27.315  0.00  0.00    -0.239 NA
ATOM     14  H   TRP A   1       2.047  27.248  27.345  0.00  0.00    +0.142 HD
ENDBRANCH  12  13
BRANCH  12  15
ATOM     15  C   TRP A   1       2.273  30.016  25.700  0.00  0.00    +0.224 C 
ATOM     16  O   TRP A   1       2.627  31.180  25.475  0.00  0.00    -0.287 OA
ENDBRANCH  12  15
ENDBRANCH  11  12
ENDBRANCH   1  11
TORSDOF 4
REMARK  Name = ../refined-set-2016/2qdt/2qdt_pocket.pdb
REMARK  112 active torsions:
REMARK  status: ('A' for Active; 'I' for Inactive)
REMARK    1  A    between atoms: _1  and  _3
REMARK    2  A    between atoms: _3  and  _4
REMARK    3  A    between atoms: _3  and  _6
REMARK    4  A    between atoms: _6  and  _7
REMARK    5  A    between atoms: _12  and  _13
REMARK    6  A    between atoms: _15  and  _17
REMARK    7  A    between atoms: _17  and  _18
REMARK    8  A    between atoms: _17  and  _20
REMARK    9  A    between atoms: _23  and  _25
REMARK   10  A    between atoms: _25  and  _26
REMARK   11  A    between atoms: _25  and  _28
REMARK   12  A    between atoms: _28  and  _29
REMARK   13  A    between atoms: _39  and  _41
REMARK   14  A    between atoms: _41  and  _42
REMARK   15  A    between atoms: _41  and  _44
REMARK   16  A    between atoms: _44  and  _45
REMARK   17  A    between atoms: _48  and  _50
REMARK   18  A    between atoms: _50  and  _51
REMARK   19  A    between atoms: _50  and  _53
REMARK   20  A    between atoms: _53  and  _54
REMARK   21  A    between atoms: _54  and  _55
REMARK   22  A    between atoms: _57  and  _59
REMARK   23  A    between atoms: _59  and  _60
REMARK   24  A    between atoms: _59  and  _62
REMARK   25  A    between atoms: _62  and  _63
REMARK   26  A    between atoms: _67  and  ZN_298
REMARK   27  A    between atoms: _68  and  _70
REMARK   28  A    between atoms: _70  and  _71
REMARK   29  A    between atoms: _70  and  _73
REMARK   30  A    between atoms: _73  and  _74
REMARK   31  A    between atoms: _75  and  ZN_298
REMARK   32  A    between atoms: _79  and  _81
REMARK   33  A    between atoms: _81  and  _82
REMARK   34  A    between atoms: _85  and  _87
REMARK   35  A    between atoms: _96  and  _97
REMARK   36  A    between atoms: _105  and  _107
REMARK   37  A    between atoms: _107  and  _108
REMARK   38  A    between atoms: _107  and  _110
REMARK   39  A    between atoms: _110  and  _111
REMARK   40  A    between atoms: _114  and  _116
REMARK   41  A    between atoms: _116  and  _117
REMARK   42  A    between atoms: _116  and  _119
REMARK   43  A    between atoms: _119  and  _120
REMARK   44  A    between atoms: _126  and  _128
REMARK   45  A    between atoms: _128  and  _129
REMARK   46  A    between atoms: _128  and  _131
REMARK   47  A    between atoms: _131  and  _132
REMARK   48  A    between atoms: _135  and  _137
REMARK   49  A    between atoms: _137  and  _138
REMARK   50  A    between atoms: _137  and  _140
REMARK   51  A    between atoms: _140  and  _141
REMARK   52  A    between atoms: _145  and  ZN_298
REMARK   53  A    between atoms: _146  and  _148
REMARK   54  A    between atoms: _148  and  _149
REMARK   55  A    between atoms: _148  and  _151
REMARK   56  A    between atoms: _151  and  _152
REMARK   57  A    between atoms: _155  and  _157
REMARK   58  A    between atoms: _157  and  _158
REMARK   59  A    between atoms: _157  and  _160
REMARK   60  A    between atoms: _160  and  _161
REMARK   61  A    between atoms: _164  and  _166
REMARK   62  A    between atoms: _166  and  _167
REMARK   63  A    between atoms: _166  and  _169
REMARK   64  A    between atoms: _169  and  _170
REMARK   65  A    between atoms: _172  and  _174
REMARK   66  A    between atoms: _174  and  _175
REMARK   67  A    between atoms: _174  and  _177
REMARK   68  A    between atoms: _177  and  _178
REMARK   69  A    between atoms: _181  and  _183
REMARK   70  A    between atoms: _183  and  _184
REMARK   71  A    between atoms: _183  and  _186
REMARK   72  A    between atoms: _186  and  _187
REMARK   73  A    between atoms: _189  and  _191
REMARK   74  A    between atoms: _191  and  _192
REMARK   75  A    between atoms: _196  and  _197
REMARK   76  A    between atoms: _202  and  _204
REMARK   77  A    between atoms: _204  and  _205
REMARK   78  A    between atoms: _207  and  _209
REMARK   79  A    between atoms: _209  and  _210
REMARK   80  A    between atoms: _209  and  _212
REMARK   81  A    between atoms: _212  and  _213
REMARK   82  A    between atoms: _218  and  _219
REMARK   83  A    between atoms: _221  and  _223
REMARK   84  A    between atoms: _223  and  _224
REMARK   85  A    between atoms: _223  and  _226
REMARK   86  A    between atoms: _226  and  _227
REMARK   87  A    between atoms: _232  and  _233
REMARK   88  A    between atoms: _236  and  _237
REMARK   89  A    between atoms: _242  and  _244
REMARK   90  A    between atoms: _244  and  _245
REMARK   91  A    between atoms: _244  and  _247
REMARK   92  A    between atoms: _247  and  _248
REMARK   93  A    between atoms: _252  and  ZN_299
REMARK   94  A    between atoms: _253  and  _255
REMARK   95  A    between atoms: _255  and  _256
REMARK   96  A    between atoms: _259  and  _261
REMARK   97  A    between atoms: _261  and  _262
REMARK   98  A    between atoms: _261  and  _264
REMARK   99  A    between atoms: _264  and  _265
REMARK  100  A    between atoms: _270  and  _271
REMARK  101  A    between atoms: _273  and  _275
REMARK  102  A    between atoms: _275  and  _276
REMARK  103  A    between atoms: _275  and  _278
REMARK  104  A    between atoms: _278  and  _279
REMARK  105  A    between atoms: _279  and  _280
REMARK  106  A    between atoms: _280  and  _281
REMARK  107  A    between atoms: _281  and  _282
REMARK  108  A    between atoms: _286  and  _288
REMARK  109  A    between atoms: _288  and  _289
REMARK  110  A    between atoms: _288  and  _291
REMARK  111  A    between atoms: _291  and  _292
REMARK  112  A    between atoms: _292  and  _293
REMARK                            x       y       z     vdW  Elec       q    Type
REMARK                         _______ _______ _______ _____ _____    ______ ____
ROOT
ATOM      1  CA  LEU A   1       3.425  34.266  29.371  0.00  0.00    +0.133 C 
ENDROOT
BRANCH   1   2
ATOM      2  N   LEU A   1       2.301  33.352  29.493  0.00  0.00    -0.239 NA
ATOM      3  H   LEU A   1       1.447  33.496  28.917  0.00  0.00    +0.142 HD
ENDBRANCH   1   2
BRANCH   1   4
ATOM      4  C   LEU A   1       2.882  35.691  29.365  0.00  0.00    +0.224 C 
ATOM      5  O   LEU A   1       1.923  36.022  28.625  0.00  0.00    -0.287 OA
ENDBRANCH   1   4
BRANCH   1   6
ATOM      6  CB  LEU A   1       4.281  33.990  28.124  0.00  0.00    +0.025 C 
BRANCH   6   7
ATOM      7  CG  LEU A   1       5.100  32.692  28.035  0.00  0.00    +0.002 C 
ATOM      8  CD2 LEU A   1       6.179  32.623  29.137  0.00  0.00    +0.000 C 
ATOM      9  CD1 LEU A   1       5.717  32.528  26.616  0.00  0.00    +0.000 C 
ENDBRANCH   6   7
ENDBRANCH   1   6
TORSDOF 4
REMARK  Name = ../refined-set-2016/2qdt/2qdt_pocket.pdb
REMARK  112 active torsions:
REMARK  status: ('A' for Active; 'I' for Inactive)
REMARK    1  A    between atoms: _1  and  _3
REMARK    2  A    between atoms: _3  and  _4
REMARK    3  A    between atoms: _3  and  _6
REMARK    4  A    between atoms: _6  and  _7
REMARK    5  A    between atoms: _12  and  _13
REMARK    6  A    between atoms: _15  and  _17
REMARK    7  A    between atoms: _17  and  _18
REMARK    8  A    between atoms: _17  and  _20
REMARK    9  A    between atoms: _23  and  _25
REMARK   10  A    between atoms: _25  and  _26
REMARK   11  A    between atoms: _25  and  _28
REMARK   12  A    between atoms: _28  and  _29
REMARK   13  A    between atoms: _39  and  _41
REMARK   14  A    between atoms: _41  and  _42
REMARK   15  A    between atoms: _41  and  _44
REMARK   16  A    between atoms: _44  and  _45
REMARK   17  A    between atoms: _48  and  _50
REMARK   18  A    between atoms: _50  and  _51
REMARK   19  A    between atoms: _50  and  _53
REMARK   20  A    between atoms: _53  and  _54
REMARK   21  A    between atoms: _54  and  _55
REMARK   22  A    between atoms: _57  and  _59
REMARK   23  A    between atoms: _59  and  _60
REMARK   24  A    between atoms: _59  and  _62
REMARK   25  A    between atoms: _62  and  _63
REMARK   26  A    between atoms: _67  and  ZN_298
REMARK   27  A    between atoms: _68  and  _70
REMARK   28  A    between atoms: _70  and  _71
REMARK   29  A    between atoms: _70  and  _73
REMARK   30  A    between atoms: _73  and  _74
REMARK   31  A    between atoms: _75  and  ZN_298
REMARK   32  A    between atoms: _79  and  _81
REMARK   33  A    between atoms: _81  and  _82
REMARK   34  A    between atoms: _85  and  _87
REMARK   35  A    between atoms: _96  and  _97
REMARK   36  A    between atoms: _105  and  _107
REMARK   37  A    between atoms: _107  and  _108
REMARK   38  A    between atoms: _107  and  _110
REMARK   39  A    between atoms: _110  and  _111
REMARK   40  A    between atoms: _114  and  _116
REMARK   41  A    between atoms: _116  and  _117
REMARK   42  A    between atoms: _116  and  _119
REMARK   43  A    between atoms: _119  and  _120
REMARK   44  A    between atoms: _126  and  _128
REMARK   45  A    between atoms: _128  and  _129
REMARK   46  A    between atoms: _128  and  _131
REMARK   47  A    between atoms: _131  and  _132
REMARK   48  A    between atoms: _135  and  _137
REMARK   49  A    between atoms: _137  and  _138
REMARK   50  A    between atoms: _137  and  _140
REMARK   51  A    between atoms: _140  and  _141
REMARK   52  A    between atoms: _145  and  ZN_298
REMARK   53  A    between atoms: _146  and  _148
REMARK   54  A    between atoms: _148  and  _149
REMARK   55  A    between atoms: _148  and  _151
REMARK   56  A    between atoms: _151  and  _152
REMARK   57  A    between atoms: _155  and  _157
REMARK   58  A    between atoms: _157  and  _158
REMARK   59  A    between atoms: _157  and  _160
REMARK   60  A    between atoms: _160  and  _161
REMARK   61  A    between atoms: _164  and  _166
REMARK   62  A    between atoms: _166  and  _167
REMARK   63  A    between atoms: _166  and  _169
REMARK   64  A    between atoms: _169  and  _170
REMARK   65  A    between atoms: _172  and  _174
REMARK   66  A    between atoms: _174  and  _175
REMARK   67  A    between atoms: _174  and  _177
REMARK   68  A    between atoms: _177  and  _178
REMARK   69  A    between atoms: _181  and  _183
REMARK   70  A    between atoms: _183  and  _184
REMARK   71  A    between atoms: _183  and  _186
REMARK   72  A    between atoms: _186  and  _187
REMARK   73  A    between atoms: _189  and  _191
REMARK   74  A    between atoms: _191  and  _192
REMARK   75  A    between atoms: _196  and  _197
REMARK   76  A    between atoms: _202  and  _204
REMARK   77  A    between atoms: _204  and  _205
REMARK   78  A    between atoms: _207  and  _209
REMARK   79  A    between atoms: _209  and  _210
REMARK   80  A    between atoms: _209  and  _212
REMARK   81  A    between atoms: _212  and  _213
REMARK   82  A    between atoms: _218  and  _219
REMARK   83  A    between atoms: _221  and  _223
REMARK   84  A    between atoms: _223  and  _224
REMARK   85  A    between atoms: _223  and  _226
REMARK   86  A    between atoms: _226  and  _227
REMARK   87  A    between atoms: _232  and  _233
REMARK   88  A    between atoms: _236  and  _237
REMARK   89  A    between atoms: _242  and  _244
REMARK   90  A    between atoms: _244  and  _245
REMARK   91  A    between atoms: _244  and  _247
REMARK   92  A    between atoms: _247  and  _248
REMARK   93  A    between atoms: _252  and  ZN_299
REMARK   94  A    between atoms: _253  and  _255
REMARK   95  A    between atoms: _255  and  _256
REMARK   96  A    between atoms: _259  and  _261
REMARK   97  A    between atoms: _261  and  _262
REMARK   98  A    between atoms: _261  and  _264
REMARK   99  A    between atoms: _264  and  _265
REMARK  100  A    between atoms: _270  and  _271
REMARK  101  A    between atoms: _273  and  _275
REMARK  102  A    between atoms: _275  and  _276
REMARK  103  A    between atoms: _275  and  _278
REMARK  104  A    between atoms: _278  and  _279
REMARK  105  A    between atoms: _279  and  _280
REMARK  106  A    between atoms: _280  and  _281
REMARK  107  A    between atoms: _281  and  _282
REMARK  108  A    between atoms: _286  and  _288
REMARK  109  A    between atoms: _288  and  _289
REMARK  110  A    between atoms: _288  and  _291
REMARK  111  A    between atoms: _291  and  _292
REMARK  112  A    between atoms: _292  and  _293
REMARK                            x       y       z     vdW  Elec       q    Type
REMARK                         _______ _______ _______ _____ _____    ______ ____
ROOT
ATOM      1  CA  MET A   1       7.795  33.796  22.545  0.00  0.00    +0.134 C 
ENDROOT
BRANCH   1   2
ATOM      2  N   MET A   1       7.082  34.635  23.512  0.00  0.00    -0.239 NA
ATOM      3  H   MET A   1       6.082  34.424  23.705  0.00  0.00    +0.142 HD
ENDBRANCH   1   2
BRANCH   1   4
ATOM      4  C   MET A   1       7.845  34.425  21.154  0.00  0.00    +0.224 C 
ATOM      5  O   MET A   1       7.042  35.317  20.843  0.00  0.00    -0.287 OA
ENDBRANCH   1   4
BRANCH   1   6
ATOM      6  CB  MET A   1       7.108  32.435  22.441  0.00  0.00    +0.037 C 
BRANCH   6   7
ATOM      7  CG  MET A   1       7.249  31.539  23.693  0.00  0.00    +0.059 C 
BRANCH   7   8
ATOM      8  SD  MET A   1       8.835  30.693  23.760  0.00  0.00    -0.139 S 
ATOM      9  CE  MET A   1       8.649  29.424  22.479  0.00  0.00    +0.069 C 
ENDBRANCH   7   8
ENDBRANCH   6   7
ENDBRANCH   1   6
TORSDOF 5
REMARK  Name = ../refined-set-2016/2qdt/2qdt_pocket.pdb
REMARK  112 active torsions:
REMARK  status: ('A' for Active; 'I' for Inactive)
REMARK    1  A    between atoms: _1  and  _3
REMARK    2  A    between atoms: _3  and  _4
REMARK    3  A    between atoms: _3  and  _6
REMARK    4  A    between atoms: _6  and  _7
REMARK    5  A    between atoms: _12  and  _13
REMARK    6  A    between atoms: _15  and  _17
REMARK    7  A    between atoms: _17  and  _18
REMARK    8  A    between atoms: _17  and  _20
REMARK    9  A    between atoms: _23  and  _25
REMARK   10  A    between atoms: _25  and  _26
REMARK   11  A    between atoms: _25  and  _28
REMARK   12  A    between atoms: _28  and  _29
REMARK   13  A    between atoms: _39  and  _41
REMARK   14  A    between atoms: _41  and  _42
REMARK   15  A    between atoms: _41  and  _44
REMARK   16  A    between atoms: _44  and  _45
REMARK   17  A    between atoms: _48  and  _50
REMARK   18  A    between atoms: _50  and  _51
REMARK   19  A    between atoms: _50  and  _53
REMARK   20  A    between atoms: _53  and  _54
REMARK   21  A    between atoms: _54  and  _55
REMARK   22  A    between atoms: _57  and  _59
REMARK   23  A    between atoms: _59  and  _60
REMARK   24  A    between atoms: _59  and  _62
REMARK   25  A    between atoms: _62  and  _63
REMARK   26  A    between atoms: _67  and  ZN_298
REMARK   27  A    between atoms: _68  and  _70
REMARK   28  A    between atoms: _70  and  _71
REMARK   29  A    between atoms: _70  and  _73
REMARK   30  A    between atoms: _73  and  _74
REMARK   31  A    between atoms: _75  and  ZN_298
REMARK   32  A    between atoms: _79  and  _81
REMARK   33  A    between atoms: _81  and  _82
REMARK   34  A    between atoms: _85  and  _87
REMARK   35  A    between atoms: _96  and  _97
REMARK   36  A    between atoms: _105  and  _107
REMARK   37  A    between atoms: _107  and  _108
REMARK   38  A    between atoms: _107  and  _110
REMARK   39  A    between atoms: _110  and  _111
REMARK   40  A    between atoms: _114  and  _116
REMARK   41  A    between atoms: _116  and  _117
REMARK   42  A    between atoms: _116  and  _119
REMARK   43  A    between atoms: _119  and  _120
REMARK   44  A    between atoms: _126  and  _128
REMARK   45  A    between atoms: _128  and  _129
REMARK   46  A    between atoms: _128  and  _131
REMARK   47  A    between atoms: _131  and  _132
REMARK   48  A    between atoms: _135  and  _137
REMARK   49  A    between atoms: _137  and  _138
REMARK   50  A    between atoms: _137  and  _140
REMARK   51  A    between atoms: _140  and  _141
REMARK   52  A    between atoms: _145  and  ZN_298
REMARK   53  A    between atoms: _146  and  _148
REMARK   54  A    between atoms: _148  and  _149
REMARK   55  A    between atoms: _148  and  _151
REMARK   56  A    between atoms: _151  and  _152
REMARK   57  A    between atoms: _155  and  _157
REMARK   58  A    between atoms: _157  and  _158
REMARK   59  A    between atoms: _157  and  _160
REMARK   60  A    between atoms: _160  and  _161
REMARK   61  A    between atoms: _164  and  _166
REMARK   62  A    between atoms: _166  and  _167
REMARK   63  A    between atoms: _166  and  _169
REMARK   64  A    between atoms: _169  and  _170
REMARK   65  A    between atoms: _172  and  _174
REMARK   66  A    between atoms: _174  and  _175
REMARK   67  A    between atoms: _174  and  _177
REMARK   68  A    between atoms: _177  and  _178
REMARK   69  A    between atoms: _181  and  _183
REMARK   70  A    between atoms: _183  and  _184
REMARK   71  A    between atoms: _183  and  _186
REMARK   72  A    between atoms: _186  and  _187
REMARK   73  A    between atoms: _189  and  _191
REMARK   74  A    between atoms: _191  and  _192
REMARK   75  A    between atoms: _196  and  _197
REMARK   76  A    between atoms: _202  and  _204
REMARK   77  A    between atoms: _204  and  _205
REMARK   78  A    between atoms: _207  and  _209
REMARK   79  A    between atoms: _209  and  _210
REMARK   80  A    between atoms: _209  and  _212
REMARK   81  A    between atoms: _212  and  _213
REMARK   82  A    between atoms: _218  and  _219
REMARK   83  A    between atoms: _221  and  _223
REMARK   84  A    between atoms: _223  and  _224
REMARK   85  A    between atoms: _223  and  _226
REMARK   86  A    between atoms: _226  and  _227
REMARK   87  A    between atoms: _232  and  _233
REMARK   88  A    between atoms: _236  and  _237
REMARK   89  A    between atoms: _242  and  _244
REMARK   90  A    between atoms: _244  and  _245
REMARK   91  A    between atoms: _244  and  _247
REMARK   92  A    between atoms: _247  and  _248
REMARK   93  A    between atoms: _252  and  ZN_299
REMARK   94  A    between atoms: _253  and  _255
REMARK   95  A    between atoms: _255  and  _256
REMARK   96  A    between atoms: _259  and  _261
REMARK   97  A    between atoms: _261  and  _262
REMARK   98  A    between atoms: _261  and  _264
REMARK   99  A    between atoms: _264  and  _265
REMARK  100  A    between atoms: _270  and  _271
REMARK  101  A    between atoms: _273  and  _275
REMARK  102  A    between atoms: _275  and  _276
REMARK  103  A    between atoms: _275  and  _278
REMARK  104  A    between atoms: _278  and  _279
REMARK  105  A    between atoms: _279  and  _280
REMARK  106  A    between atoms: _280  and  _281
REMARK  107  A    between atoms: _281  and  _282
REMARK  108  A    between atoms: _286  and  _288
REMARK  109  A    between atoms: _288  and  _289
REMARK  110  A    between atoms: _288  and  _291
REMARK  111  A    between atoms: _291  and  _292
REMARK  112  A    between atoms: _292  and  _293
REMARK                            x       y       z     vdW  Elec       q    Type
REMARK                         _______ _______ _______ _____ _____    ______ ____
ROOT
ATOM      1  C   UNK A   1      14.306  34.879  26.045  0.00  0.00    +0.000 C 
ATOM      2  O   UNK A   1      13.448  35.767  25.943  0.00  0.00    +0.000 OA
ATOM      3  N   UNK A   2      14.334  33.774  25.292  0.00  0.00    +0.000 N 
ATOM      4  H   UNK A   2      15.005  33.019  25.541  0.00  0.00    +0.000 HD
ENDROOT
BRANCH   3   5
ATOM      5  C   UNK A   2      13.458  33.581  24.129  0.00  0.00    +0.000 C 
ATOM      6  C   UNK A   2      13.796  32.226  23.425  0.00  0.00    +0.000 C 
BRANCH   5   7
ATOM      7  C   UNK A   2      11.958  33.621  24.430  0.00  0.00    +0.000 C 
ATOM      8  N   UNK A   3      11.583  33.189  25.631  0.00  0.00    +0.000 N 
ATOM      9  H   UNK A   3      12.310  32.858  26.297  0.00  0.00    +0.000 HD
ATOM     10  O   UNK A   2      11.156  33.966  23.560  0.00  0.00    +0.000 OA
BRANCH   8  11
ATOM     11  C   UNK A   3      10.201  33.165  26.037  0.00  0.00    +0.000 C 
ATOM     12  C   UNK A   3       9.916  31.971  26.973  0.00  0.00    +0.000 C 
ATOM     13  C   UNK A   3      10.737  31.989  28.270  0.00  0.00    +0.000 C 
ATOM     14  O   UNK A   3      10.203  31.493  29.287  0.00  0.00    +0.000 OA
ATOM     15 ZN   UNK A   3      10.912  32.337  30.988  0.00  0.00    +0.000 Zn
ATOM     16  N   UNK A   3      10.479  34.332  30.688  0.00  0.00    +0.000 N 
ATOM     17  C   UNK A   3       9.216  34.727  30.653  0.00  0.00    +0.000 A 
ATOM     18  N   UNK A   3       9.130  35.780  29.856  0.00  0.00    +0.000 NA
ATOM     19  C   UNK A   3      10.381  36.076  29.356  0.00  0.00    +0.000 A 
ATOM     20  C   UNK A   3      10.611  37.185  28.386  0.00  0.00    +0.000 C 
ATOM     21  C   UNK A   3      10.055  36.867  27.007  0.00  0.00    +0.000 C 
ATOM     22  N   UNK A   3      10.507  35.528  26.639  0.00  0.00    +0.000 N 
ATOM     23  H   ACE A   4      11.503  35.391  26.373  0.00  0.00    +0.000 HD
ATOM     24  C   UNK A   3      11.224  35.147  29.867  0.00  0.00    +0.000 A 
ATOM     25  O   UNK A   3      11.874  32.507  28.300  0.00  0.00    +0.000 OA
ATOM     26  C   UNK A   3       9.688  34.472  26.631  0.00  0.00    +0.000 C 
ATOM     27  O   UNK A   3       8.537  34.521  27.035  0.00  0.00    +0.000 OA
BRANCH  15  28
ATOM     28  N   UNK A   3       9.260  31.767  32.114  0.00  0.00    +0.000 N 
ATOM     29  C   UNK A   3       8.813  32.380  33.259  0.00  0.00    +0.000 A 
ATOM     30  C   UNK A   3       7.531  31.982  33.450  0.00  0.00    +0.000 A 
ATOM     31  N   UNK A   3       7.225  31.153  32.395  0.00  0.00    +0.000 NA
ATOM     32  C   UNK A   3       8.276  31.054  31.601  0.00  0.00    +0.000 A 
BRANCH  30  33
ATOM     33  C   UNK A   3       6.539  32.329  34.515  0.00  0.00    +0.000 C 
BRANCH  33  34
ATOM     34  C   UNK A   3       5.686  33.540  34.168  0.00  0.00    +0.000 C 
BRANCH  34  35
ATOM     35  N   UNK A   3       6.499  34.760  34.096  0.00  0.00    +0.000 N 
ATOM     36  H   UNK A   3       7.273  34.883  34.780  0.00  0.00    +0.000 HD
ATOM     37  C   UNK A   1       6.289  35.714  33.195  0.00  0.00    +0.000 C 
ATOM     38  O   UNK A   1       5.577  35.558  32.209  0.00  0.00    +0.000 OA
BRANCH  37  39
ATOM     39  C   UNK A   1       7.005  37.041  33.398  0.00  0.00    +0.000 C 
ATOM     40  N   UNK A   1       6.972  37.551  34.776  0.00  0.00    +0.000 NA
ATOM     41  C   UNK A   1       8.320  37.975  35.220  0.00  0.00    +0.000 C 
ATOM     42  C   UNK A   1       9.102  38.065  33.909  0.00  0.00    +0.000 C 
ATOM     43  C   UNK A   1       8.515  36.964  33.090  0.00  0.00    +0.000 C 
ENDBRANCH  37  39
ENDBRANCH  34  35
BRANCH  34  44
ATOM     44  C   UNK A   3       4.660  33.817  35.259  0.00  0.00    +0.000 C 
ATOM     45  O   UNK A   2       5.031  33.955  36.429  0.00  0.00    +0.000 OA
ENDBRANCH  34  44
ENDBRANCH  33  34
ENDBRANCH  30  33
ENDBRANCH  15  28
BRANCH  21  46
ATOM     46  C   UNK A   3      10.388  38.002  26.023  0.00  0.00    +0.000 C 
ATOM     47  O   ACE A   4       9.638  38.986  25.941  0.00  0.00    +0.000 OA
ENDBRANCH  21  46
ENDBRANCH   8  11
ENDBRANCH   5   7
ENDBRANCH   3   5
BRANCH   1  48
ATOM     48  C   UNK A   1      15.387  34.973  27.105  0.00  0.00    +0.000 C 
BRANCH  48  49
ATOM     49  N   UNK A   1      15.525  36.353  27.538  0.00  0.00    +0.000 NA
ATOM     50  H   UNK A   1      14.893  36.722  28.277  0.00  0.00    +0.000 HD
ENDBRANCH  48  49
BRANCH  48  51
ATOM     51  C   UNK A   1      15.071  34.010  28.275  0.00  0.00    +0.000 C 
BRANCH  51  56
ATOM     52  N   UNK A   1      16.153  33.192  30.410  0.00  0.00    +0.000 N 
ATOM     53  C   UNK A   1      17.366  32.953  30.888  0.00  0.00    +0.000 A 
ATOM     54  N   UNK A   1      18.253  33.205  29.937  0.00  0.00    +0.000 NA
ATOM     55  C   UNK A   1      17.588  33.636  28.816  0.00  0.00    +0.000 A 
ATOM     56  C   UNK A   1      16.264  33.651  29.111  0.00  0.00    +0.000 A 
BRANCH  52  57
ATOM     57 ZN   UNK A   1      14.461  33.249  31.716  0.00  0.00    +0.000 Zn
BRANCH  57  61
ATOM     58  C   UNK A   1      14.833  37.322  31.792  0.00  0.00    +0.000 A 
ATOM     59  N   UNK A   1      13.683  37.183  32.539  0.00  0.00    +0.000 NA
ATOM     60  C   UNK A   1      13.208  35.957  32.389  0.00  0.00    +0.000 A 
ATOM     61  N   UNK A   1      14.006  35.297  31.573  0.00  0.00    +0.000 N 
ATOM     62  C   UNK A   1      15.038  36.130  31.187  0.00  0.00    +0.000 A 
BRANCH  58  63
ATOM     63  C   UNK A   1      15.614  38.589  31.752  0.00  0.00    +0.000 C 
BRANCH  63  64
ATOM     64  C   UNK A   1      15.069  39.619  30.754  0.00  0.00    +0.000 C 
BRANCH  64  65
ATOM     65  N   UNK A   1      13.754  40.118  31.139  0.00  0.00    +0.000 NA
ATOM     66  H   UNK A   1      12.897  39.701  30.722  0.00  0.00    +0.000 HD
ENDBRANCH  64  65
BRANCH  64  67
ATOM     67  C   UNK A   1      15.019  39.054  29.350  0.00  0.00    +0.000 C 
ATOM     68  O   UNK A   1      13.943  38.684  28.861  0.00  0.00    +0.000 OA
ENDBRANCH  64  67
ENDBRANCH  63  64
ENDBRANCH  58  63
ENDBRANCH  57  61
BRANCH  57  69
ATOM     69  N   UNK A   1      15.234  33.142  33.586  0.00  0.00    +0.000 N 
ATOM     70  C   UNK A   1      15.149  32.275  34.582  0.00  0.00    +0.000 A 
ATOM     71  N   UNK A   1      15.686  32.822  35.657  0.00  0.00    +0.000 NA
ATOM     72  C   UNK A   1      16.092  34.109  35.363  0.00  0.00    +0.000 A 
ATOM     73  C   UNK A   1      15.814  34.296  34.052  0.00  0.00    +0.000 A 
BRANCH  72  74
ATOM     74  C   UNK A   1      16.750  35.013  36.364  0.00  0.00    +0.000 C 
BRANCH  74  75
ATOM     75  C   UNK A   1      18.270  34.785  36.494  0.00  0.00    +0.000 C 
BRANCH  75  76
ATOM     76  C   UNK A   1      19.004  34.997  35.153  0.00  0.00    +0.000 C 
ATOM     77  N   UNK A   2      19.238  36.259  34.825  0.00  0.00    +0.000 N 
ATOM     78  H   UNK A   2      18.708  37.006  35.317  0.00  0.00    +0.000 HD
ATOM     79  O   UNK A   1      19.346  34.042  34.446  0.00  0.00    +0.000 OA
BRANCH  77  80
ATOM     80  C   UNK A   2      20.204  36.648  33.807  0.00  0.00    +0.000 C 
BRANCH  80  81
ATOM     81  C   UNK A   2      20.940  37.813  34.443  0.00  0.00    +0.000 C 
ATOM     82  O   UNK A   2      20.410  38.446  35.386  0.00  0.00    +0.000 OA
ENDBRANCH  80  81
BRANCH  80  83
ATOM     83  C   UNK A   2      19.554  37.104  32.498  0.00  0.00    +0.000 C 
ATOM     84  C   UNK A   2      18.624  36.016  31.899  0.00  0.00    +0.000 C 
BRANCH  83  85
ATOM     85  O   UNK A   2      18.823  38.335  32.713  0.00  0.00    +0.000 OA
ATOM     86  H   UNK A   2      18.406  38.623  31.862  0.00  0.00    +0.000 HD
ENDBRANCH  83  85
ENDBRANCH  80  83
ENDBRANCH  77  80
ENDBRANCH  75  76
BRANCH  75  87
ATOM     87  N   UNK A   1      18.872  35.642  37.506  0.00  0.00    +0.000 NA
ATOM     88  H   UNK A   1      18.280  36.298  38.054  0.00  0.00    +0.000 HD
ENDBRANCH  75  87
ENDBRANCH  74  75
ENDBRANCH  72  74
ENDBRANCH  57  69
ENDBRANCH  52  57
ENDBRANCH  51  56
ENDBRANCH  48  51
ENDBRANCH   1  48
TORSDOF 29
REMARK  Name = ../refined-set-2016/2qdt/2qdt_pocket.pdb
REMARK  112 active torsions:
REMARK  status: ('A' for Active; 'I' for Inactive)
REMARK    1  A    between atoms: _1  and  _3
REMARK    2  A    between atoms: _3  and  _4
REMARK    3  A    between atoms: _3  and  _6
REMARK    4  A    between atoms: _6  and  _7
REMARK    5  A    between atoms: _12  and  _13
REMARK    6  A    between atoms: _15  and  _17
REMARK    7  A    between atoms: _17  and  _18
REMARK    8  A    between atoms: _17  and  _20
REMARK    9  A    between atoms: _23  and  _25
REMARK   10  A    between atoms: _25  and  _26
REMARK   11  A    between atoms: _25  and  _28
REMARK   12  A    between atoms: _28  and  _29
REMARK   13  A    between atoms: _39  and  _41
REMARK   14  A    between atoms: _41  and  _42
REMARK   15  A    between atoms: _41  and  _44
REMARK   16  A    between atoms: _44  and  _45
REMARK   17  A    between atoms: _48  and  _50
REMARK   18  A    between atoms: _50  and  _51
REMARK   19  A    between atoms: _50  and  _53
REMARK   20  A    between atoms: _53  and  _54
REMARK   21  A    between atoms: _54  and  _55
REMARK   22  A    between atoms: _57  and  _59
REMARK   23  A    between atoms: _59  and  _60
REMARK   24  A    between atoms: _59  and  _62
REMARK   25  A    between atoms: _62  and  _63
REMARK   26  A    between atoms: _67  and  ZN_298
REMARK   27  A    between atoms: _68  and  _70
REMARK   28  A    between atoms: _70  and  _71
REMARK   29  A    between atoms: _70  and  _73
REMARK   30  A    between atoms: _73  and  _74
REMARK   31  A    between atoms: _75  and  ZN_298
REMARK   32  A    between atoms: _79  and  _81
REMARK   33  A    between atoms: _81  and  _82
REMARK   34  A    between atoms: _85  and  _87
REMARK   35  A    between atoms: _96  and  _97
REMARK   36  A    between atoms: _105  and  _107
REMARK   37  A    between atoms: _107  and  _108
REMARK   38  A    between atoms: _107  and  _110
REMARK   39  A    between atoms: _110  and  _111
REMARK   40  A    between atoms: _114  and  _116
REMARK   41  A    between atoms: _116  and  _117
REMARK   42  A    between atoms: _116  and  _119
REMARK   43  A    between atoms: _119  and  _120
REMARK   44  A    between atoms: _126  and  _128
REMARK   45  A    between atoms: _128  and  _129
REMARK   46  A    between atoms: _128  and  _131
REMARK   47  A    between atoms: _131  and  _132
REMARK   48  A    between atoms: _135  and  _137
REMARK   49  A    between atoms: _137  and  _138
REMARK   50  A    between atoms: _137  and  _140
REMARK   51  A    between atoms: _140  and  _141
REMARK   52  A    between atoms: _145  and  ZN_298
REMARK   53  A    between atoms: _146  and  _148
REMARK   54  A    between atoms: _148  and  _149
REMARK   55  A    between atoms: _148  and  _151
REMARK   56  A    between atoms: _151  and  _152
REMARK   57  A    between atoms: _155  and  _157
REMARK   58  A    between atoms: _157  and  _158
REMARK   59  A    between atoms: _157  and  _160
REMARK   60  A    between atoms: _160  and  _161
REMARK   61  A    between atoms: _164  and  _166
REMARK   62  A    between atoms: _166  and  _167
REMARK   63  A    between atoms: _166  and  _169
REMARK   64  A    between atoms: _169  and  _170
REMARK   65  A    between atoms: _172  and  _174
REMARK   66  A    between atoms: _174  and  _175
REMARK   67  A    between atoms: _174  and  _177
REMARK   68  A    between atoms: _177  and  _178
REMARK   69  A    between atoms: _181  and  _183
REMARK   70  A    between atoms: _183  and  _184
REMARK   71  A    between atoms: _183  and  _186
REMARK   72  A    between atoms: _186  and  _187
REMARK   73  A    between atoms: _189  and  _191
REMARK   74  A    between atoms: _191  and  _192
REMARK   75  A    between atoms: _196  and  _197
REMARK   76  A    between atoms: _202  and  _204
REMARK   77  A    between atoms: _204  and  _205
REMARK   78  A    between atoms: _207  and  _209
REMARK   79  A    between atoms: _209  and  _210
REMARK   80  A    between atoms: _209  and  _212
REMARK   81  A    between atoms: _212  and  _213
REMARK   82  A    between atoms: _218  and  _219
REMARK   83  A    between atoms: _221  and  _223
REMARK   84  A    between atoms: _223  and  _224
REMARK   85  A    between atoms: _223  and  _226
REMARK   86  A    between atoms: _226  and  _227
REMARK   87  A    between atoms: _232  and  _233
REMARK   88  A    between atoms: _236  and  _237
REMARK   89  A    between atoms: _242  and  _244
REMARK   90  A    between atoms: _244  and  _245
REMARK   91  A    between atoms: _244  and  _247
REMARK   92  A    between atoms: _247  and  _248
REMARK   93  A    between atoms: _252  and  ZN_299
REMARK   94  A    between atoms: _253  and  _255
REMARK   95  A    between atoms: _255  and  _256
REMARK   96  A    between atoms: _259  and  _261
REMARK   97  A    between atoms: _261  and  _262
REMARK   98  A    between atoms: _261  and  _264
REMARK   99  A    between atoms: _264  and  _265
REMARK  100  A    between atoms: _270  and  _271
REMARK  101  A    between atoms: _273  and  _275
REMARK  102  A    between atoms: _275  and  _276
REMARK  103  A    between atoms: _275  and  _278
REMARK  104  A    between atoms: _278  and  _279
REMARK  105  A    between atoms: _279  and  _280
REMARK  106  A    between atoms: _280  and  _281
REMARK  107  A    between atoms: _281  and  _282
REMARK  108  A    between atoms: _286  and  _288
REMARK  109  A    between atoms: _288  and  _289
REMARK  110  A    between atoms: _288  and  _291
REMARK  111  A    between atoms: _291  and  _292
REMARK  112  A    between atoms: _292  and  _293
REMARK                            x       y       z     vdW  Elec       q    Type
REMARK                         _______ _______ _______ _____ _____    ______ ____
ROOT
ATOM      1  CA  ASP A   1      23.683  32.030  27.258  0.00  0.00    +0.144 C 
ENDROOT
BRANCH   1   2
ATOM      2  N   ASP A   1      24.283  31.729  25.956  0.00  0.00    -0.239 NA
ATOM      3  H   ASP A   1      23.794  31.073  25.314  0.00  0.00    +0.142 HD
ENDBRANCH   1   2
BRANCH   1   4
ATOM      4  C   ASP A   1      24.580  31.429  28.350  0.00  0.00    +0.225 C 
ATOM      5  O   ASP A   1      25.117  30.331  28.168  0.00  0.00    -0.287 OA
ENDBRANCH   1   4
BRANCH   1   6
ATOM      6  CB  ASP A   1      22.297  31.408  27.329  0.00  0.00    +0.139 C 
BRANCH   6   7
ATOM      7  CG  ASP A   1      21.579  31.749  28.597  0.00  0.00    +0.367 C 
ATOM      8  OD2 ASP A   1      21.659  30.930  29.557  0.00  0.00    -0.246 OA
ATOM      9  OD1 ASP A   1      20.952  32.843  28.637  0.00  0.00    -0.246 OA
ENDBRANCH   6   7
ENDBRANCH   1   6
TORSDOF 4
REMARK  Name = ../refined-set-2016/2qdt/2qdt_pocket.pdb
REMARK  112 active torsions:
REMARK  status: ('A' for Active; 'I' for Inactive)
REMARK    1  A    between atoms: _1  and  _3
REMARK    2  A    between atoms: _3  and  _4
REMARK    3  A    between atoms: _3  and  _6
REMARK    4  A    between atoms: _6  and  _7
REMARK    5  A    between atoms: _12  and  _13
REMARK    6  A    between atoms: _15  and  _17
REMARK    7  A    between atoms: _17  and  _18
REMARK    8  A    between atoms: _17  and  _20
REMARK    9  A    between atoms: _23  and  _25
REMARK   10  A    between atoms: _25  and  _26
REMARK   11  A    between atoms: _25  and  _28
REMARK   12  A    between atoms: _28  and  _29
REMARK   13  A    between atoms: _39  and  _41
REMARK   14  A    between atoms: _41  and  _42
REMARK   15  A    between atoms: _41  and  _44
REMARK   16  A    between atoms: _44  and  _45
REMARK   17  A    between atoms: _48  and  _50
REMARK   18  A    between atoms: _50  and  _51
REMARK   19  A    between atoms: _50  and  _53
REMARK   20  A    between atoms: _53  and  _54
REMARK   21  A    between atoms: _54  and  _55
REMARK   22  A    between atoms: _57  and  _59
REMARK   23  A    between atoms: _59  and  _60
REMARK   24  A    between atoms: _59  and  _62
REMARK   25  A    between atoms: _62  and  _63
REMARK   26  A    between atoms: _67  and  ZN_298
REMARK   27  A    between atoms: _68  and  _70
REMARK   28  A    between atoms: _70  and  _71
REMARK   29  A    between atoms: _70  and  _73
REMARK   30  A    between atoms: _73  and  _74
REMARK   31  A    between atoms: _75  and  ZN_298
REMARK   32  A    between atoms: _79  and  _81
REMARK   33  A    between atoms: _81  and  _82
REMARK   34  A    between atoms: _85  and  _87
REMARK   35  A    between atoms: _96  and  _97
REMARK   36  A    between atoms: _105  and  _107
REMARK   37  A    between atoms: _107  and  _108
REMARK   38  A    between atoms: _107  and  _110
REMARK   39  A    between atoms: _110  and  _111
REMARK   40  A    between atoms: _114  and  _116
REMARK   41  A    between atoms: _116  and  _117
REMARK   42  A    between atoms: _116  and  _119
REMARK   43  A    between atoms: _119  and  _120
REMARK   44  A    between atoms: _126  and  _128
REMARK   45  A    between atoms: _128  and  _129
REMARK   46  A    between atoms: _128  and  _131
REMARK   47  A    between atoms: _131  and  _132
REMARK   48  A    between atoms: _135  and  _137
REMARK   49  A    between atoms: _137  and  _138
REMARK   50  A    between atoms: _137  and  _140
REMARK   51  A    between atoms: _140  and  _141
REMARK   52  A    between atoms: _145  and  ZN_298
REMARK   53  A    between atoms: _146  and  _148
REMARK   54  A    between atoms: _148  and  _149
REMARK   55  A    between atoms: _148  and  _151
REMARK   56  A    between atoms: _151  and  _152
REMARK   57  A    between atoms: _155  and  _157
REMARK   58  A    between atoms: _157  and  _158
REMARK   59  A    between atoms: _157  and  _160
REMARK   60  A    between atoms: _160  and  _161
REMARK   61  A    between atoms: _164  and  _166
REMARK   62  A    between atoms: _166  and  _167
REMARK   63  A    between atoms: _166  and  _169
REMARK   64  A    between atoms: _169  and  _170
REMARK   65  A    between atoms: _172  and  _174
REMARK   66  A    between atoms: _174  and  _175
REMARK   67  A    between atoms: _174  and  _177
REMARK   68  A    between atoms: _177  and  _178
REMARK   69  A    between atoms: _181  and  _183
REMARK   70  A    between atoms: _183  and  _184
REMARK   71  A    between atoms: _183  and  _186
REMARK   72  A    between atoms: _186  and  _187
REMARK   73  A    between atoms: _189  and  _191
REMARK   74  A    between atoms: _191  and  _192
REMARK   75  A    between atoms: _196  and  _197
REMARK   76  A    between atoms: _202  and  _204
REMARK   77  A    between atoms: _204  and  _205
REMARK   78  A    between atoms: _207  and  _209
REMARK   79  A    between atoms: _209  and  _210
REMARK   80  A    between atoms: _209  and  _212
REMARK   81  A    between atoms: _212  and  _213
REMARK   82  A    between atoms: _218  and  _219
REMARK   83  A    between atoms: _221  and  _223
REMARK   84  A    between atoms: _223  and  _224
REMARK   85  A    between atoms: _223  and  _226
REMARK   86  A    between atoms: _226  and  _227
REMARK   87  A    between atoms: _232  and  _233
REMARK   88  A    between atoms: _236  and  _237
REMARK   89  A    between atoms: _242  and  _244
REMARK   90  A    between atoms: _244  and  _245
REMARK   91  A    between atoms: _244  and  _247
REMARK   92  A    between atoms: _247  and  _248
REMARK   93  A    between atoms: _252  and  ZN_299
REMARK   94  A    between atoms: _253  and  _255
REMARK   95  A    between atoms: _255  and  _256
REMARK   96  A    between atoms: _259  and  _261
REMARK   97  A    between atoms: _261  and  _262
REMARK   98  A    between atoms: _261  and  _264
REMARK   99  A    between atoms: _264  and  _265
REMARK  100  A    between atoms: _270  and  _271
REMARK  101  A    between atoms: _273  and  _275
REMARK  102  A    between atoms: _275  and  _276
REMARK  103  A    between atoms: _275  and  _278
REMARK  104  A    between atoms: _278  and  _279
REMARK  105  A    between atoms: _279  and  _280
REMARK  106  A    between atoms: _280  and  _281
REMARK  107  A    between atoms: _281  and  _282
REMARK  108  A    between atoms: _286  and  _288
REMARK  109  A    between atoms: _288  and  _289
REMARK  110  A    between atoms: _288  and  _291
REMARK  111  A    between atoms: _291  and  _292
REMARK  112  A    between atoms: _292  and  _293
REMARK                            x       y       z     vdW  Elec       q    Type
REMARK                         _______ _______ _______ _____ _____    ______ ____
ROOT
ATOM      1  CB  PHE A   1      20.332  28.200  27.868  0.00  0.00    +0.051 C 
ENDROOT
BRANCH   1   2
ATOM      2  CG  PHE A   1      19.337  28.490  28.981  0.00  0.00    -0.020 A 
ATOM      3  CD2 PHE A   1      19.163  27.633  30.066  0.00  0.00    -0.004 A 
ATOM      4  CE2 PHE A   1      18.193  27.911  31.047  0.00  0.00    -0.000 A 
ATOM      5  CZ  PHE A   1      17.395  29.038  30.936  0.00  0.00    -0.000 A 
ATOM      6  CE1 PHE A   1      17.548  29.873  29.850  0.00  0.00    -0.000 A 
ATOM      7  CD1 PHE A   1      18.500  29.603  28.885  0.00  0.00    -0.004 A 
ENDBRANCH   1   2
BRANCH   1   8
ATOM      8  CA  PHE A   1      21.623  27.450  28.307  0.00  0.00    +0.137 C 
BRANCH   8   9
ATOM      9  N   PHE A   1      22.372  28.225  29.304  0.00  0.00    -0.239 NA
ATOM     10  H   PHE A   1      22.386  29.263  29.236  0.00  0.00    +0.142 HD
ENDBRANCH   8   9
BRANCH   8  11
ATOM     11  C   PHE A   1      22.458  27.199  27.043  0.00  0.00    +0.224 C 
ATOM     12  O   PHE A   1      22.037  26.454  26.151  0.00  0.00    -0.287 OA
ENDBRANCH   8  11
ENDBRANCH   1   8
TORSDOF 4
REMARK  Name = ../refined-set-2016/2qdt/2qdt_pocket.pdb
REMARK  112 active torsions:
REMARK  status: ('A' for Active; 'I' for Inactive)
REMARK    1  A    between atoms: _1  and  _3
REMARK    2  A    between atoms: _3  and  _4
REMARK    3  A    between atoms: _3  and  _6
REMARK    4  A    between atoms: _6  and  _7
REMARK    5  A    between atoms: _12  and  _13
REMARK    6  A    between atoms: _15  and  _17
REMARK    7  A    between atoms: _17  and  _18
REMARK    8  A    between atoms: _17  and  _20
REMARK    9  A    between atoms: _23  and  _25
REMARK   10  A    between atoms: _25  and  _26
REMARK   11  A    between atoms: _25  and  _28
REMARK   12  A    between atoms: _28  and  _29
REMARK   13  A    between atoms: _39  and  _41
REMARK   14  A    between atoms: _41  and  _42
REMARK   15  A    between atoms: _41  and  _44
REMARK   16  A    between atoms: _44  and  _45
REMARK   17  A    between atoms: _48  and  _50
REMARK   18  A    between atoms: _50  and  _51
REMARK   19  A    between atoms: _50  and  _53
REMARK   20  A    between atoms: _53  and  _54
REMARK   21  A    between atoms: _54  and  _55
REMARK   22  A    between atoms: _57  and  _59
REMARK   23  A    between atoms: _59  and  _60
REMARK   24  A    between atoms: _59  and  _62
REMARK   25  A    between atoms: _62  and  _63
REMARK   26  A    between atoms: _67  and  ZN_298
REMARK   27  A    between atoms: _68  and  _70
REMARK   28  A    between atoms: _70  and  _71
REMARK   29  A    between atoms: _70  and  _73
REMARK   30  A    between atoms: _73  and  _74
REMARK   31  A    between atoms: _75  and  ZN_298
REMARK   32  A    between atoms: _79  and  _81
REMARK   33  A    between atoms: _81  and  _82
REMARK   34  A    between atoms: _85  and  _87
REMARK   35  A    between atoms: _96  and  _97
REMARK   36  A    between atoms: _105  and  _107
REMARK   37  A    between atoms: _107  and  _108
REMARK   38  A    between atoms: _107  and  _110
REMARK   39  A    between atoms: _110  and  _111
REMARK   40  A    between atoms: _114  and  _116
REMARK   41  A    between atoms: _116  and  _117
REMARK   42  A    between atoms: _116  and  _119
REMARK   43  A    between atoms: _119  and  _120
REMARK   44  A    between atoms: _126  and  _128
REMARK   45  A    between atoms: _128  and  _129
REMARK   46  A    between atoms: _128  and  _131
REMARK   47  A    between atoms: _131  and  _132
REMARK   48  A    between atoms: _135  and  _137
REMARK   49  A    between atoms: _137  and  _138
REMARK   50  A    between atoms: _137  and  _140
REMARK   51  A    between atoms: _140  and  _141
REMARK   52  A    between atoms: _145  and  ZN_298
REMARK   53  A    between atoms: _146  and  _148
REMARK   54  A    between atoms: _148  and  _149
REMARK   55  A    between atoms: _148  and  _151
REMARK   56  A    between atoms: _151  and  _152
REMARK   57  A    between atoms: _155  and  _157
REMARK   58  A    between atoms: _157  and  _158
REMARK   59  A    between atoms: _157  and  _160
REMARK   60  A    between atoms: _160  and  _161
REMARK   61  A    between atoms: _164  and  _166
REMARK   62  A    between atoms: _166  and  _167
REMARK   63  A    between atoms: _166  and  _169
REMARK   64  A    between atoms: _169  and  _170
REMARK   65  A    between atoms: _172  and  _174
REMARK   66  A    between atoms: _174  and  _175
REMARK   67  A    between atoms: _174  and  _177
REMARK   68  A    between atoms: _177  and  _178
REMARK   69  A    between atoms: _181  and  _183
REMARK   70  A    between atoms: _183  and  _184
REMARK   71  A    between atoms: _183  and  _186
REMARK   72  A    between atoms: _186  and  _187
REMARK   73  A    between atoms: _189  and  _191
REMARK   74  A    between atoms: _191  and  _192
REMARK   75  A    between atoms: _196  and  _197
REMARK   76  A    between atoms: _202  and  _204
REMARK   77  A    between atoms: _204  and  _205
REMARK   78  A    between atoms: _207  and  _209
REMARK   79  A    between atoms: _209  and  _210
REMARK   80  A    between atoms: _209  and  _212
REMARK   81  A    between atoms: _212  and  _213
REMARK   82  A    between atoms: _218  and  _219
REMARK   83  A    between atoms: _221  and  _223
REMARK   84  A    between atoms: _223  and  _224
REMARK   85  A    between atoms: _223  and  _226
REMARK   86  A    between atoms: _226  and  _227
REMARK   87  A    between atoms: _232  and  _233
REMARK   88  A    between atoms: _236  and  _237
REMARK   89  A    between atoms: _242  and  _244
REMARK   90  A    between atoms: _244  and  _245
REMARK   91  A    between atoms: _244  and  _247
REMARK   92  A    between atoms: _247  and  _248
REMARK   93  A    between atoms: _252  and  ZN_299
REMARK   94  A    between atoms: _253  and  _255
REMARK   95  A    between atoms: _255  and  _256
REMARK   96  A    between atoms: _259  and  _261
REMARK   97  A    between atoms: _261  and  _262
REMARK   98  A    between atoms: _261  and  _264
REMARK   99  A    between atoms: _264  and  _265
REMARK  100  A    between atoms: _270  and  _271
REMARK  101  A    between atoms: _273  and  _275
REMARK  102  A    between atoms: _275  and  _276
REMARK  103  A    between atoms: _275  and  _278
REMARK  104  A    between atoms: _278  and  _279
REMARK  105  A    between atoms: _279  and  _280
REMARK  106  A    between atoms: _280  and  _281
REMARK  107  A    between atoms: _281  and  _282
REMARK  108  A    between atoms: _286  and  _288
REMARK  109  A    between atoms: _288  and  _289
REMARK  110  A    between atoms: _288  and  _291
REMARK  111  A    between atoms: _291  and  _292
REMARK  112  A    between atoms: _292  and  _293
REMARK                            x       y       z     vdW  Elec       q    Type
REMARK                         _______ _______ _______ _____ _____    ______ ____
ROOT
ATOM      1  CA  ILE A   1      17.141  28.635  23.649  0.00  0.00    +0.133 C 
ENDROOT
BRANCH   1   2
ATOM      2  N   ILE A   1      18.369  27.833  23.589  0.00  0.00    -0.239 NA
ATOM      3  H   ILE A   1      19.275  28.294  23.810  0.00  0.00    +0.142 HD
ENDBRANCH   1   2
BRANCH   1   4
ATOM      4  CB  ILE A   1      16.617  28.782  25.127  0.00  0.00    +0.023 C 
ATOM      5  CG2 ILE A   1      15.260  29.521  25.189  0.00  0.00    +0.002 C 
BRANCH   4   6
ATOM      6  CG1 ILE A   1      16.514  27.395  25.794  0.00  0.00    +0.002 C 
ATOM      7  CD1 ILE A   1      15.724  27.360  27.150  0.00  0.00    +0.000 C 
ENDBRANCH   4   6
ENDBRANCH   1   4
BRANCH   1   8
ATOM      8  C   ILE A   1      17.490  29.995  23.059  0.00  0.00    +0.224 C 
ATOM      9  O   ILE A   1      18.036  30.849  23.728  0.00  0.00    -0.287 OA
ENDBRANCH   1   8
TORSDOF 4
REMARK  Name = ../refined-set-2016/2qdt/2qdt_pocket.pdb
REMARK  112 active torsions:
REMARK  status: ('A' for Active; 'I' for Inactive)
REMARK    1  A    between atoms: _1  and  _3
REMARK    2  A    between atoms: _3  and  _4
REMARK    3  A    between atoms: _3  and  _6
REMARK    4  A    between atoms: _6  and  _7
REMARK    5  A    between atoms: _12  and  _13
REMARK    6  A    between atoms: _15  and  _17
REMARK    7  A    between atoms: _17  and  _18
REMARK    8  A    between atoms: _17  and  _20
REMARK    9  A    between atoms: _23  and  _25
REMARK   10  A    between atoms: _25  and  _26
REMARK   11  A    between atoms: _25  and  _28
REMARK   12  A    between atoms: _28  and  _29
REMARK   13  A    between atoms: _39  and  _41
REMARK   14  A    between atoms: _41  and  _42
REMARK   15  A    between atoms: _41  and  _44
REMARK   16  A    between atoms: _44  and  _45
REMARK   17  A    between atoms: _48  and  _50
REMARK   18  A    between atoms: _50  and  _51
REMARK   19  A    between atoms: _50  and  _53
REMARK   20  A    between atoms: _53  and  _54
REMARK   21  A    between atoms: _54  and  _55
REMARK   22  A    between atoms: _57  and  _59
REMARK   23  A    between atoms: _59  and  _60
REMARK   24  A    between atoms: _59  and  _62
REMARK   25  A    between atoms: _62  and  _63
REMARK   26  A    between atoms: _67  and  ZN_298
REMARK   27  A    between atoms: _68  and  _70
REMARK   28  A    between atoms: _70  and  _71
REMARK   29  A    between atoms: _70  and  _73
REMARK   30  A    between atoms: _73  and  _74
REMARK   31  A    between atoms: _75  and  ZN_298
REMARK   32  A    between atoms: _79  and  _81
REMARK   33  A    between atoms: _81  and  _82
REMARK   34  A    between atoms: _85  and  _87
REMARK   35  A    between atoms: _96  and  _97
REMARK   36  A    between atoms: _105  and  _107
REMARK   37  A    between atoms: _107  and  _108
REMARK   38  A    between atoms: _107  and  _110
REMARK   39  A    between atoms: _110  and  _111
REMARK   40  A    between atoms: _114  and  _116
REMARK   41  A    between atoms: _116  and  _117
REMARK   42  A    between atoms: _116  and  _119
REMARK   43  A    between atoms: _119  and  _120
REMARK   44  A    between atoms: _126  and  _128
REMARK   45  A    between atoms: _128  and  _129
REMARK   46  A    between atoms: _128  and  _131
REMARK   47  A    between atoms: _131  and  _132
REMARK   48  A    between atoms: _135  and  _137
REMARK   49  A    between atoms: _137  and  _138
REMARK   50  A    between atoms: _137  and  _140
REMARK   51  A    between atoms: _140  and  _141
REMARK   52  A    between atoms: _145  and  ZN_298
REMARK   53  A    between atoms: _146  and  _148
REMARK   54  A    between atoms: _148  and  _149
REMARK   55  A    between atoms: _148  and  _151
REMARK   56  A    between atoms: _151  and  _152
REMARK   57  A    between atoms: _155  and  _157
REMARK   58  A    between atoms: _157  and  _158
REMARK   59  A    between atoms: _157  and  _160
REMARK   60  A    between atoms: _160  and  _161
REMARK   61  A    between atoms: _164  and  _166
REMARK   62  A    between atoms: _166  and  _167
REMARK   63  A    between atoms: _166  and  _169
REMARK   64  A    between atoms: _169  and  _170
REMARK   65  A    between atoms: _172  and  _174
REMARK   66  A    between atoms: _174  and  _175
REMARK   67  A    between atoms: _174  and  _177
REMARK   68  A    between atoms: _177  and  _178
REMARK   69  A    between atoms: _181  and  _183
REMARK   70  A    between atoms: _183  and  _184
REMARK   71  A    between atoms: _183  and  _186
REMARK   72  A    between atoms: _186  and  _187
REMARK   73  A    between atoms: _189  and  _191
REMARK   74  A    between atoms: _191  and  _192
REMARK   75  A    between atoms: _196  and  _197
REMARK   76  A    between atoms: _202  and  _204
REMARK   77  A    between atoms: _204  and  _205
REMARK   78  A    between atoms: _207  and  _209
REMARK   79  A    between atoms: _209  and  _210
REMARK   80  A    between atoms: _209  and  _212
REMARK   81  A    between atoms: _212  and  _213
REMARK   82  A    between atoms: _218  and  _219
REMARK   83  A    between atoms: _221  and  _223
REMARK   84  A    between atoms: _223  and  _224
REMARK   85  A    between atoms: _223  and  _226
REMARK   86  A    between atoms: _226  and  _227
REMARK   87  A    between atoms: _232  and  _233
REMARK   88  A    between atoms: _236  and  _237
REMARK   89  A    between atoms: _242  and  _244
REMARK   90  A    between atoms: _244  and  _245
REMARK   91  A    between atoms: _244  and  _247
REMARK   92  A    between atoms: _247  and  _248
REMARK   93  A    between atoms: _252  and  ZN_299
REMARK   94  A    between atoms: _253  and  _255
REMARK   95  A    between atoms: _255  and  _256
REMARK   96  A    between atoms: _259  and  _261
REMARK   97  A    between atoms: _261  and  _262
REMARK   98  A    between atoms: _261  and  _264
REMARK   99  A    between atoms: _264  and  _265
REMARK  100  A    between atoms: _270  and  _271
REMARK  101  A    between atoms: _273  and  _275
REMARK  102  A    between atoms: _275  and  _276
REMARK  103  A    between atoms: _275  and  _278
REMARK  104  A    between atoms: _278  and  _279
REMARK  105  A    between atoms: _279  and  _280
REMARK  106  A    between atoms: _280  and  _281
REMARK  107  A    between atoms: _281  and  _282
REMARK  108  A    between atoms: _286  and  _288
REMARK  109  A    between atoms: _288  and  _289
REMARK  110  A    between atoms: _288  and  _291
REMARK  111  A    between atoms: _291  and  _292
REMARK  112  A    between atoms: _292  and  _293
REMARK                            x       y       z     vdW  Elec       q    Type
REMARK                         _______ _______ _______ _____ _____    ______ ____
ROOT
ATOM      1  C   SER A   4      15.881  30.887  38.813  0.00  0.00    +0.243 C 
ATOM      2  N   ALA A   5      16.351  29.653  38.899  0.00  0.00    -0.297 N 
ATOM      3  H   ALA A   5      15.765  28.926  39.356  0.00  0.00    +0.150 HD
ATOM      4  O   SER A   4      16.517  31.820  38.341  0.00  0.00    -0.273 OA
ENDROOT
BRANCH   2   5
ATOM      5  CA  ALA A   5      17.653  29.275  38.380  0.00  0.00    +0.149 C 
ATOM      6  CB  ALA A   5      18.677  29.314  39.501  0.00  0.00    +0.031 C 
BRANCH   5   7
ATOM      7  C   ALA A   5      17.546  27.873  37.790  0.00  0.00    +0.244 C 
ATOM      8  O   ALA A   5      18.181  26.961  38.291  0.00  0.00    -0.273 OA
ATOM      9  N   PRO A   6      16.758  27.712  36.688  0.00  0.00    -0.272 N 
ATOM     10  CA  PRO A   6      16.424  26.393  36.151  0.00  0.00    +0.152 C 
ATOM     11  CB  PRO A   6      15.377  26.706  35.073  0.00  0.00    +0.031 C 
ATOM     12  CG  PRO A   6      15.686  28.099  34.632  0.00  0.00    +0.024 C 
ATOM     13  CD  PRO A   6      16.191  28.797  35.866  0.00  0.00    +0.094 C 
BRANCH  10  14
ATOM     14  C   PRO A   6      17.622  25.663  35.556  0.00  0.00    +0.241 C 
ATOM     15  N   GLY A   7      18.111  24.659  36.271  0.00  0.00    -0.295 N 
ATOM     16  H   GLY A   7      17.667  24.435  37.185  0.00  0.00    +0.150 HD
ATOM     17  O   PRO A   6      18.097  26.016  34.486  0.00  0.00    -0.273 OA
BRANCH  15  18
ATOM     18  CA  GLY A   7      19.250  23.853  35.827  0.00  0.00    +0.176 C 
BRANCH  18  19
ATOM     19  C   GLY A   7      20.594  24.554  35.924  0.00  0.00    +0.243 C 
ATOM     20  N   TYR A   8      20.645  25.694  36.615  0.00  0.00    -0.298 N 
ATOM     21  H   TYR A   8      19.788  26.036  37.095  0.00  0.00    +0.150 HD
ATOM     22  O   GLY A   7      21.584  24.073  35.372  0.00  0.00    -0.273 OA
BRANCH  20  23
ATOM     23  CA  TYR A   8      21.868  26.466  36.711  0.00  0.00    +0.141 C 
BRANCH  23  24
ATOM     24  C   TYR A   8      22.838  25.795  37.665  0.00  0.00    +0.227 C 
ATOM     25  O   TYR A   8      22.441  25.327  38.752  0.00  0.00    -0.286 OA
ENDBRANCH  23  24
BRANCH  23  26
ATOM     26  CB  TYR A   8      21.589  27.861  37.264  0.00  0.00    +0.054 C 
BRANCH  26  27
ATOM     27  CG  TYR A   8      20.809  28.816  36.358  0.00  0.00    -0.020 A 
ATOM     28  CD2 TYR A   8      20.669  30.140  36.703  0.00  0.00    -0.001 A 
ATOM     29  CE2 TYR A   8      19.977  31.020  35.912  0.00  0.00    +0.036 A 
ATOM     30  CZ  TYR A   8      19.388  30.574  34.759  0.00  0.00    +0.134 A 
ATOM     31  CE1 TYR A   8      19.484  29.254  34.397  0.00  0.00    +0.036 A 
ATOM     32  CD1 TYR A   8      20.190  28.381  35.189  0.00  0.00    -0.001 A 
BRANCH  30  33
ATOM     33  OH  TYR A   8      18.694  31.444  33.979  0.00  0.00    -0.506 OA
ATOM     34  HH  TYR A   8      19.297  32.170  33.679  0.00  0.00    +0.292 HD
ENDBRANCH  30  33
ENDBRANCH  26  27
ENDBRANCH  23  26
ENDBRANCH  20  23
ENDBRANCH  18  19
ENDBRANCH  15  18
ENDBRANCH  10  14
ENDBRANCH   5   7
ENDBRANCH   2   5
BRANCH   1  35
ATOM     35  CA  SER A   4      14.453  31.077  39.306  0.00  0.00    +0.178 C 
BRANCH  35  38
ATOM     36  C   LEU A   3      14.501  33.220  40.486  0.00  0.00    +0.241 C 
ATOM     37  O   LEU A   3      15.161  32.777  41.418  0.00  0.00    -0.273 OA
ATOM     38  N   SER A   4      14.121  32.476  39.461  0.00  0.00    -0.295 N 
ATOM     39  H   SER A   4      13.547  32.925  38.719  0.00  0.00    +0.150 HD
BRANCH  36  40
ATOM     40  CA  LEU A   3      14.131  34.683  40.421  0.00  0.00    +0.149 C 
BRANCH  40  42
ATOM     41  C   SER A   2      13.264  35.753  38.391  0.00  0.00    +0.243 C 
ATOM     42  N   LEU A   3      13.091  34.922  39.422  0.00  0.00    -0.297 N 
ATOM     43  H   LEU A   3      12.182  34.426  39.518  0.00  0.00    +0.150 HD
ATOM     44  O   SER A   2      14.272  36.472  38.234  0.00  0.00    -0.273 OA
BRANCH  41  45
ATOM     45  CA  SER A   2      12.129  35.800  37.387  0.00  0.00    +0.178 C 
BRANCH  45  48
ATOM     46  C   ASP A   1      11.687  38.203  37.619  0.00  0.00    +0.239 C 
ATOM     47  O   ASP A   1      11.514  38.173  38.853  0.00  0.00    -0.274 OA
ATOM     48  N   SER A   2      11.935  37.130  36.868  0.00  0.00    -0.295 N 
ATOM     49  H   SER A   2      11.992  37.262  35.838  0.00  0.00    +0.150 HD
BRANCH  46  50
ATOM     50  CA  ASP A   1      11.642  39.512  36.860  0.00  0.00    +0.156 C 
BRANCH  50  51
ATOM     51  N   ASP A   1      11.132  40.575  37.718  0.00  0.00    -0.238 NA
ATOM     52  H   ASP A   1      11.782  41.300  38.084  0.00  0.00    +0.142 HD
ENDBRANCH  50  51
BRANCH  50  53
ATOM     53  CB  ASP A   1      13.043  39.874  36.326  0.00  0.00    +0.140 C 
BRANCH  53  54
ATOM     54  CG  ASP A   1      13.462  39.016  35.167  0.00  0.00    +0.367 C 
ATOM     55  OD2 ASP A   1      14.677  38.962  34.892  0.00  0.00    -0.246 OA
ATOM     56  OD1 ASP A   1      12.568  38.407  34.520  0.00  0.00    -0.246 OA
ENDBRANCH  53  54
ENDBRANCH  50  53
ENDBRANCH  46  50
ENDBRANCH  45  48
BRANCH  45  57
ATOM     57  CB  SER A   2      12.475  34.852  36.221  0.00  0.00    +0.166 C 
BRANCH  57  58
ATOM     58  OG  SER A   2      11.537  35.002  35.171  0.00  0.00    -0.380 OA
ATOM     59  H   SER A   2      10.631  34.786  35.506  0.00  0.00    +0.211 HD
ENDBRANCH  57  58
ENDBRANCH  45  57
ENDBRANCH  41  45
ENDBRANCH  40  42
BRANCH  40  60
ATOM     60  CB  LEU A   3      13.704  35.194  41.809  0.00  0.00    +0.029 C 
BRANCH  60  61
ATOM     61  CG  LEU A   3      13.719  36.710  42.090  0.00  0.00    +0.002 C 
ATOM     62  CD2 LEU A   3      12.916  36.987  43.354  0.00  0.00    +0.000 C 
ATOM     63  CD1 LEU A   3      15.100  37.277  42.253  0.00  0.00    +0.000 C 
ENDBRANCH  60  61
ENDBRANCH  40  60
ENDBRANCH  36  40
ENDBRANCH  35  38
BRANCH  35  64
ATOM     64  CB  SER A   4      13.527  30.465  38.245  0.00  0.00    +0.166 C 
BRANCH  64  65
ATOM     65  OG  SER A   4      13.634  31.199  37.016  0.00  0.00    -0.380 OA
ATOM     66  H   SER A   4      13.034  30.797  36.339  0.00  0.00    +0.211 HD
ENDBRANCH  64  65
ENDBRANCH  35  64
ENDBRANCH   1  35
TORSDOF 26
REMARK  Name = ../refined-set-2016/2qdt/2qdt_pocket.pdb
REMARK  112 active torsions:
REMARK  status: ('A' for Active; 'I' for Inactive)
REMARK    1  A    between atoms: _1  and  _3
REMARK    2  A    between atoms: _3  and  _4
REMARK    3  A    between atoms: _3  and  _6
REMARK    4  A    between atoms: _6  and  _7
REMARK    5  A    between atoms: _12  and  _13
REMARK    6  A    between atoms: _15  and  _17
REMARK    7  A    between atoms: _17  and  _18
REMARK    8  A    between atoms: _17  and  _20
REMARK    9  A    between atoms: _23  and  _25
REMARK   10  A    between atoms: _25  and  _26
REMARK   11  A    between atoms: _25  and  _28
REMARK   12  A    between atoms: _28  and  _29
REMARK   13  A    between atoms: _39  and  _41
REMARK   14  A    between atoms: _41  and  _42
REMARK   15  A    between atoms: _41  and  _44
REMARK   16  A    between atoms: _44  and  _45
REMARK   17  A    between atoms: _48  and  _50
REMARK   18  A    between atoms: _50  and  _51
REMARK   19  A    between atoms: _50  and  _53
REMARK   20  A    between atoms: _53  and  _54
REMARK   21  A    between atoms: _54  and  _55
REMARK   22  A    between atoms: _57  and  _59
REMARK   23  A    between atoms: _59  and  _60
REMARK   24  A    between atoms: _59  and  _62
REMARK   25  A    between atoms: _62  and  _63
REMARK   26  A    between atoms: _67  and  ZN_298
REMARK   27  A    between atoms: _68  and  _70
REMARK   28  A    between atoms: _70  and  _71
REMARK   29  A    between atoms: _70  and  _73
REMARK   30  A    between atoms: _73  and  _74
REMARK   31  A    between atoms: _75  and  ZN_298
REMARK   32  A    between atoms: _79  and  _81
REMARK   33  A    between atoms: _81  and  _82
REMARK   34  A    between atoms: _85  and  _87
REMARK   35  A    between atoms: _96  and  _97
REMARK   36  A    between atoms: _105  and  _107
REMARK   37  A    between atoms: _107  and  _108
REMARK   38  A    between atoms: _107  and  _110
REMARK   39  A    between atoms: _110  and  _111
REMARK   40  A    between atoms: _114  and  _116
REMARK   41  A    between atoms: _116  and  _117
REMARK   42  A    between atoms: _116  and  _119
REMARK   43  A    between atoms: _119  and  _120
REMARK   44  A    between atoms: _126  and  _128
REMARK   45  A    between atoms: _128  and  _129
REMARK   46  A    between atoms: _128  and  _131
REMARK   47  A    between atoms: _131  and  _132
REMARK   48  A    between atoms: _135  and  _137
REMARK   49  A    between atoms: _137  and  _138
REMARK   50  A    between atoms: _137  and  _140
REMARK   51  A    between atoms: _140  and  _141
REMARK   52  A    between atoms: _145  and  ZN_298
REMARK   53  A    between atoms: _146  and  _148
REMARK   54  A    between atoms: _148  and  _149
REMARK   55  A    between atoms: _148  and  _151
REMARK   56  A    between atoms: _151  and  _152
REMARK   57  A    between atoms: _155  and  _157
REMARK   58  A    between atoms: _157  and  _158
REMARK   59  A    between atoms: _157  and  _160
REMARK   60  A    between atoms: _160  and  _161
REMARK   61  A    between atoms: _164  and  _166
REMARK   62  A    between atoms: _166  and  _167
REMARK   63  A    between atoms: _166  and  _169
REMARK   64  A    between atoms: _169  and  _170
REMARK   65  A    between atoms: _172  and  _174
REMARK   66  A    between atoms: _174  and  _175
REMARK   67  A    between atoms: _174  and  _177
REMARK   68  A    between atoms: _177  and  _178
REMARK   69  A    between atoms: _181  and  _183
REMARK   70  A    between atoms: _183  and  _184
REMARK   71  A    between atoms: _183  and  _186
REMARK   72  A    between atoms: _186  and  _187
REMARK   73  A    between atoms: _189  and  _191
REMARK   74  A    between atoms: _191  and  _192
REMARK   75  A    between atoms: _196  and  _197
REMARK   76  A    between atoms: _202  and  _204
REMARK   77  A    between atoms: _204  and  _205
REMARK   78  A    between atoms: _207  and  _209
REMARK   79  A    between atoms: _209  and  _210
REMARK   80  A    between atoms: _209  and  _212
REMARK   81  A    between atoms: _212  and  _213
REMARK   82  A    between atoms: _218  and  _219
REMARK   83  A    between atoms: _221  and  _223
REMARK   84  A    between atoms: _223  and  _224
REMARK   85  A    between atoms: _223  and  _226
REMARK   86  A    between atoms: _226  and  _227
REMARK   87  A    between atoms: _232  and  _233
REMARK   88  A    between atoms: _236  and  _237
REMARK   89  A    between atoms: _242  and  _244
REMARK   90  A    between atoms: _244  and  _245
REMARK   91  A    between atoms: _244  and  _247
REMARK   92  A    between atoms: _247  and  _248
REMARK   93  A    between atoms: _252  and  ZN_299
REMARK   94  A    between atoms: _253  and  _255
REMARK   95  A    between atoms: _255  and  _256
REMARK   96  A    between atoms: _259  and  _261
REMARK   97  A    between atoms: _261  and  _262
REMARK   98  A    between atoms: _261  and  _264
REMARK   99  A    between atoms: _264  and  _265
REMARK  100  A    between atoms: _270  and  _271
REMARK  101  A    between atoms: _273  and  _275
REMARK  102  A    between atoms: _275  and  _276
REMARK  103  A    between atoms: _275  and  _278
REMARK  104  A    between atoms: _278  and  _279
REMARK  105  A    between atoms: _279  and  _280
REMARK  106  A    between atoms: _280  and  _281
REMARK  107  A    between atoms: _281  and  _282
REMARK  108  A    between atoms: _286  and  _288
REMARK  109  A    between atoms: _288  and  _289
REMARK  110  A    between atoms: _288  and  _291
REMARK  111  A    between atoms: _291  and  _292
REMARK  112  A    between atoms: _292  and  _293
REMARK                            x       y       z     vdW  Elec       q    Type
REMARK                         _______ _______ _______ _____ _____    ______ ____
ROOT
ATOM      1  CG  TYR A   1      20.195  34.331  42.384  0.00  0.00    -0.020 A 
ATOM      2  CD2 TYR A   1      18.836  34.079  42.146  0.00  0.00    -0.001 A 
ATOM      3  CE2 TYR A   1      18.407  33.497  40.936  0.00  0.00    +0.036 A 
ATOM      4  CZ  TYR A   1      19.357  33.183  39.968  0.00  0.00    +0.134 A 
ATOM      5  CE1 TYR A   1      20.698  33.425  40.189  0.00  0.00    +0.036 A 
ATOM      6  CD1 TYR A   1      21.104  34.020  41.378  0.00  0.00    -0.001 A 
ENDROOT
BRANCH   4   7
ATOM      7  OH  TYR A   1      19.005  32.610  38.777  0.00  0.00    -0.506 OA
ATOM      8  HH  TYR A   1      18.562  31.741  38.948  0.00  0.00    +0.292 HD
ENDBRANCH   4   7
BRANCH   1   9
ATOM      9  CB  TYR A   1      20.663  34.921  43.693  0.00  0.00    +0.051 C 
BRANCH   9  10
ATOM     10  CA  TYR A   1      20.704  36.432  43.710  0.00  0.00    +0.137 C 
BRANCH  10  11
ATOM     11  N   TYR A   1      22.022  36.937  43.294  0.00  0.00    -0.239 NA
ATOM     12  H   TYR A   1      22.749  36.271  42.964  0.00  0.00    +0.142 HD
ENDBRANCH  10  11
BRANCH  10  13
ATOM     13  C   TYR A   1      20.253  36.936  45.092  0.00  0.00    +0.224 C 
ATOM     14  O   TYR A   1      19.122  37.392  45.234  0.00  0.00    -0.287 OA
ENDBRANCH  10  13
ENDBRANCH   9  10
ENDBRANCH   1   9
TORSDOF 5
REMARK  Name = ../refined-set-2016/2qdt/2qdt_pocket.pdb
REMARK  112 active torsions:
REMARK  status: ('A' for Active; 'I' for Inactive)
REMARK    1  A    between atoms: _1  and  _3
REMARK    2  A    between atoms: _3  and  _4
REMARK    3  A    between atoms: _3  and  _6
REMARK    4  A    between atoms: _6  and  _7
REMARK    5  A    between atoms: _12  and  _13
REMARK    6  A    between atoms: _15  and  _17
REMARK    7  A    between atoms: _17  and  _18
REMARK    8  A    between atoms: _17  and  _20
REMARK    9  A    between atoms: _23  and  _25
REMARK   10  A    between atoms: _25  and  _26
REMARK   11  A    between atoms: _25  and  _28
REMARK   12  A    between atoms: _28  and  _29
REMARK   13  A    between atoms: _39  and  _41
REMARK   14  A    between atoms: _41  and  _42
REMARK   15  A    between atoms: _41  and  _44
REMARK   16  A    between atoms: _44  and  _45
REMARK   17  A    between atoms: _48  and  _50
REMARK   18  A    between atoms: _50  and  _51
REMARK   19  A    between atoms: _50  and  _53
REMARK   20  A    between atoms: _53  and  _54
REMARK   21  A    between atoms: _54  and  _55
REMARK   22  A    between atoms: _57  and  _59
REMARK   23  A    between atoms: _59  and  _60
REMARK   24  A    between atoms: _59  and  _62
REMARK   25  A    between atoms: _62  and  _63
REMARK   26  A    between atoms: _67  and  ZN_298
REMARK   27  A    between atoms: _68  and  _70
REMARK   28  A    between atoms: _70  and  _71
REMARK   29  A    between atoms: _70  and  _73
REMARK   30  A    between atoms: _73  and  _74
REMARK   31  A    between atoms: _75  and  ZN_298
REMARK   32  A    between atoms: _79  and  _81
REMARK   33  A    between atoms: _81  and  _82
REMARK   34  A    between atoms: _85  and  _87
REMARK   35  A    between atoms: _96  and  _97
REMARK   36  A    between atoms: _105  and  _107
REMARK   37  A    between atoms: _107  and  _108
REMARK   38  A    between atoms: _107  and  _110
REMARK   39  A    between atoms: _110  and  _111
REMARK   40  A    between atoms: _114  and  _116
REMARK   41  A    between atoms: _116  and  _117
REMARK   42  A    between atoms: _116  and  _119
REMARK   43  A    between atoms: _119  and  _120
REMARK   44  A    between atoms: _126  and  _128
REMARK   45  A    between atoms: _128  and  _129
REMARK   46  A    between atoms: _128  and  _131
REMARK   47  A    between atoms: _131  and  _132
REMARK   48  A    between atoms: _135  and  _137
REMARK   49  A    between atoms: _137  and  _138
REMARK   50  A    between atoms: _137  and  _140
REMARK   51  A    between atoms: _140  and  _141
REMARK   52  A    between atoms: _145  and  ZN_298
REMARK   53  A    between atoms: _146  and  _148
REMARK   54  A    between atoms: _148  and  _149
REMARK   55  A    between atoms: _148  and  _151
REMARK   56  A    between atoms: _151  and  _152
REMARK   57  A    between atoms: _155  and  _157
REMARK   58  A    between atoms: _157  and  _158
REMARK   59  A    between atoms: _157  and  _160
REMARK   60  A    between atoms: _160  and  _161
REMARK   61  A    between atoms: _164  and  _166
REMARK   62  A    between atoms: _166  and  _167
REMARK   63  A    between atoms: _166  and  _169
REMARK   64  A    between atoms: _169  and  _170
REMARK   65  A    between atoms: _172  and  _174
REMARK   66  A    between atoms: _174  and  _175
REMARK   67  A    between atoms: _174  and  _177
REMARK   68  A    between atoms: _177  and  _178
REMARK   69  A    between atoms: _181  and  _183
REMARK   70  A    between atoms: _183  and  _184
REMARK   71  A    between atoms: _183  and  _186
REMARK   72  A    between atoms: _186  and  _187
REMARK   73  A    between atoms: _189  and  _191
REMARK   74  A    between atoms: _191  and  _192
REMARK   75  A    between atoms: _196  and  _197
REMARK   76  A    between atoms: _202  and  _204
REMARK   77  A    between atoms: _204  and  _205
REMARK   78  A    between atoms: _207  and  _209
REMARK   79  A    between atoms: _209  and  _210
REMARK   80  A    between atoms: _209  and  _212
REMARK   81  A    between atoms: _212  and  _213
REMARK   82  A    between atoms: _218  and  _219
REMARK   83  A    between atoms: _221  and  _223
REMARK   84  A    between atoms: _223  and  _224
REMARK   85  A    between atoms: _223  and  _226
REMARK   86  A    between atoms: _226  and  _227
REMARK   87  A    between atoms: _232  and  _233
REMARK   88  A    between atoms: _236  and  _237
REMARK   89  A    between atoms: _242  and  _244
REMARK   90  A    between atoms: _244  and  _245
REMARK   91  A    between atoms: _244  and  _247
REMARK   92  A    between atoms: _247  and  _248
REMARK   93  A    between atoms: _252  and  ZN_299
REMARK   94  A    between atoms: _253  and  _255
REMARK   95  A    between atoms: _255  and  _256
REMARK   96  A    between atoms: _259  and  _261
REMARK   97  A    between atoms: _261  and  _262
REMARK   98  A    between atoms: _261  and  _264
REMARK   99  A    between atoms: _264  and  _265
REMARK  100  A    between atoms: _270  and  _271
REMARK  101  A    between atoms: _273  and  _275
REMARK  102  A    between atoms: _275  and  _276
REMARK  103  A    between atoms: _275  and  _278
REMARK  104  A    between atoms: _278  and  _279
REMARK  105  A    between atoms: _279  and  _280
REMARK  106  A    between atoms: _280  and  _281
REMARK  107  A    between atoms: _281  and  _282
REMARK  108  A    between atoms: _286  and  _288
REMARK  109  A    between atoms: _288  and  _289
REMARK  110  A    between atoms: _288  and  _291
REMARK  111  A    between atoms: _291  and  _292
REMARK  112  A    between atoms: _292  and  _293
REMARK                            x       y       z     vdW  Elec       q    Type
REMARK                         _______ _______ _______ _____ _____    ______ ____
ROOT
ATOM      1  CA  ALA A   1       5.404  32.508  39.826  0.00  0.00    +0.133 C 
ATOM      2  CB  ALA A   1       6.734  33.015  39.186  0.00  0.00    +0.027 C 
ENDROOT
BRANCH   1   3
ATOM      3  N   ALA A   1       4.416  32.191  38.804  0.00  0.00    -0.239 NA
ATOM      4  H   ALA A   1       4.615  32.438  37.813  0.00  0.00    +0.142 HD
ENDBRANCH   1   3
BRANCH   1   5
ATOM      5  C   ALA A   1       4.868  33.542  40.835  0.00  0.00    +0.224 C 
ATOM      6  O   ALA A   1       5.281  33.544  41.992  0.00  0.00    -0.287 OA
ENDBRANCH   1   5
TORSDOF 2
REMARK  Name = ../refined-set-2016/2qdt/2qdt_pocket.pdb
REMARK  112 active torsions:
REMARK  status: ('A' for Active; 'I' for Inactive)
REMARK    1  A    between atoms: _1  and  _3
REMARK    2  A    between atoms: _3  and  _4
REMARK    3  A    between atoms: _3  and  _6
REMARK    4  A    between atoms: _6  and  _7
REMARK    5  A    between atoms: _12  and  _13
REMARK    6  A    between atoms: _15  and  _17
REMARK    7  A    between atoms: _17  and  _18
REMARK    8  A    between atoms: _17  and  _20
REMARK    9  A    between atoms: _23  and  _25
REMARK   10  A    between atoms: _25  and  _26
REMARK   11  A    between atoms: _25  and  _28
REMARK   12  A    between atoms: _28  and  _29
REMARK   13  A    between atoms: _39  and  _41
REMARK   14  A    between atoms: _41  and  _42
REMARK   15  A    between atoms: _41  and  _44
REMARK   16  A    between atoms: _44  and  _45
REMARK   17  A    between atoms: _48  and  _50
REMARK   18  A    between atoms: _50  and  _51
REMARK   19  A    between atoms: _50  and  _53
REMARK   20  A    between atoms: _53  and  _54
REMARK   21  A    between atoms: _54  and  _55
REMARK   22  A    between atoms: _57  and  _59
REMARK   23  A    between atoms: _59  and  _60
REMARK   24  A    between atoms: _59  and  _62
REMARK   25  A    between atoms: _62  and  _63
REMARK   26  A    between atoms: _67  and  ZN_298
REMARK   27  A    between atoms: _68  and  _70
REMARK   28  A    between atoms: _70  and  _71
REMARK   29  A    between atoms: _70  and  _73
REMARK   30  A    between atoms: _73  and  _74
REMARK   31  A    between atoms: _75  and  ZN_298
REMARK   32  A    between atoms: _79  and  _81
REMARK   33  A    between atoms: _81  and  _82
REMARK   34  A    between atoms: _85  and  _87
REMARK   35  A    between atoms: _96  and  _97
REMARK   36  A    between atoms: _105  and  _107
REMARK   37  A    between atoms: _107  and  _108
REMARK   38  A    between atoms: _107  and  _110
REMARK   39  A    between atoms: _110  and  _111
REMARK   40  A    between atoms: _114  and  _116
REMARK   41  A    between atoms: _116  and  _117
REMARK   42  A    between atoms: _116  and  _119
REMARK   43  A    between atoms: _119  and  _120
REMARK   44  A    between atoms: _126  and  _128
REMARK   45  A    between atoms: _128  and  _129
REMARK   46  A    between atoms: _128  and  _131
REMARK   47  A    between atoms: _131  and  _132
REMARK   48  A    between atoms: _135  and  _137
REMARK   49  A    between atoms: _137  and  _138
REMARK   50  A    between atoms: _137  and  _140
REMARK   51  A    between atoms: _140  and  _141
REMARK   52  A    between atoms: _145  and  ZN_298
REMARK   53  A    between atoms: _146  and  _148
REMARK   54  A    between atoms: _148  and  _149
REMARK   55  A    between atoms: _148  and  _151
REMARK   56  A    between atoms: _151  and  _152
REMARK   57  A    between atoms: _155  and  _157
REMARK   58  A    between atoms: _157  and  _158
REMARK   59  A    between atoms: _157  and  _160
REMARK   60  A    between atoms: _160  and  _161
REMARK   61  A    between atoms: _164  and  _166
REMARK   62  A    between atoms: _166  and  _167
REMARK   63  A    between atoms: _166  and  _169
REMARK   64  A    between atoms: _169  and  _170
REMARK   65  A    between atoms: _172  and  _174
REMARK   66  A    between atoms: _174  and  _175
REMARK   67  A    between atoms: _174  and  _177
REMARK   68  A    between atoms: _177  and  _178
REMARK   69  A    between atoms: _181  and  _183
REMARK   70  A    between atoms: _183  and  _184
REMARK   71  A    between atoms: _183  and  _186
REMARK   72  A    between atoms: _186  and  _187
REMARK   73  A    between atoms: _189  and  _191
REMARK   74  A    between atoms: _191  and  _192
REMARK   75  A    between atoms: _196  and  _197
REMARK   76  A    between atoms: _202  and  _204
REMARK   77  A    between atoms: _204  and  _205
REMARK   78  A    between atoms: _207  and  _209
REMARK   79  A    between atoms: _209  and  _210
REMARK   80  A    between atoms: _209  and  _212
REMARK   81  A    between atoms: _212  and  _213
REMARK   82  A    between atoms: _218  and  _219
REMARK   83  A    between atoms: _221  and  _223
REMARK   84  A    between atoms: _223  and  _224
REMARK   85  A    between atoms: _223  and  _226
REMARK   86  A    between atoms: _226  and  _227
REMARK   87  A    between atoms: _232  and  _233
REMARK   88  A    between atoms: _236  and  _237
REMARK   89  A    between atoms: _242  and  _244
REMARK   90  A    between atoms: _244  and  _245
REMARK   91  A    between atoms: _244  and  _247
REMARK   92  A    between atoms: _247  and  _248
REMARK   93  A    between atoms: _252  and  ZN_299
REMARK   94  A    between atoms: _253  and  _255
REMARK   95  A    between atoms: _255  and  _256
REMARK   96  A    between atoms: _259  and  _261
REMARK   97  A    between atoms: _261  and  _262
REMARK   98  A    between atoms: _261  and  _264
REMARK   99  A    between atoms: _264  and  _265
REMARK  100  A    between atoms: _270  and  _271
REMARK  101  A    between atoms: _273  and  _275
REMARK  102  A    between atoms: _275  and  _276
REMARK  103  A    between atoms: _275  and  _278
REMARK  104  A    between atoms: _278  and  _279
REMARK  105  A    between atoms: _279  and  _280
REMARK  106  A    between atoms: _280  and  _281
REMARK  107  A    between atoms: _281  and  _282
REMARK  108  A    between atoms: _286  and  _288
REMARK  109  A    between atoms: _288  and  _289
REMARK  110  A    between atoms: _288  and  _291
REMARK  111  A    between atoms: _291  and  _292
REMARK  112  A    between atoms: _292  and  _293
REMARK                            x       y       z     vdW  Elec       q    Type
REMARK                         _______ _______ _______ _____ _____    ______ ____
ROOT
ATOM      1  CG  TYR A   1       8.030  36.871  43.624  0.00  0.00    -0.020 A 
ATOM      2  CD2 TYR A   1       8.758  37.897  43.026  0.00  0.00    -0.001 A 
ATOM      3  CE2 TYR A   1       9.485  37.683  41.827  0.00  0.00    +0.036 A 
ATOM      4  CZ  TYR A   1       9.466  36.428  41.244  0.00  0.00    +0.134 A 
ATOM      5  CE1 TYR A   1       8.728  35.393  41.828  0.00  0.00    +0.036 A 
ATOM      6  CD1 TYR A   1       8.023  35.629  43.022  0.00  0.00    -0.001 A 
ENDROOT
BRANCH   4   7
ATOM      7  OH  TYR A   1      10.182  36.184  40.080  0.00  0.00    -0.506 OA
ATOM      8  HH  TYR A   1      10.055  35.241  39.807  0.00  0.00    +0.292 HD
ENDBRANCH   4   7
BRANCH   1   9
ATOM      9  CB  TYR A   1       7.232  37.127  44.881  0.00  0.00    +0.051 C 
BRANCH   9  10
ATOM     10  CA  TYR A   1       7.529  36.190  46.040  0.00  0.00    +0.137 C 
BRANCH  10  11
ATOM     11  N   TYR A   1       6.855  36.705  47.235  0.00  0.00    -0.239 NA
ATOM     12  H   TYR A   1       6.366  37.622  47.198  0.00  0.00    +0.142 HD
ENDBRANCH  10  11
BRANCH  10  13
ATOM     13  C   TYR A   1       9.042  36.034  46.278  0.00  0.00    +0.224 C 
ATOM     14  O   TYR A   1       9.621  35.015  45.950  0.00  0.00    -0.287 OA
ENDBRANCH  10  13
ENDBRANCH   9  10
ENDBRANCH   1   9
TORSDOF 5
REMARK  Name = ../refined-set-2016/2qdt/2qdt_pocket.pdb
REMARK  112 active torsions:
REMARK  status: ('A' for Active; 'I' for Inactive)
REMARK    1  A    between atoms: _1  and  _3
REMARK    2  A    between atoms: _3  and  _4
REMARK    3  A    between atoms: _3  and  _6
REMARK    4  A    between atoms: _6  and  _7
REMARK    5  A    between atoms: _12  and  _13
REMARK    6  A    between atoms: _15  and  _17
REMARK    7  A    between atoms: _17  and  _18
REMARK    8  A    between atoms: _17  and  _20
REMARK    9  A    between atoms: _23  and  _25
REMARK   10  A    between atoms: _25  and  _26
REMARK   11  A    between atoms: _25  and  _28
REMARK   12  A    between atoms: _28  and  _29
REMARK   13  A    between atoms: _39  and  _41
REMARK   14  A    between atoms: _41  and  _42
REMARK   15  A    between atoms: _41  and  _44
REMARK   16  A    between atoms: _44  and  _45
REMARK   17  A    between atoms: _48  and  _50
REMARK   18  A    between atoms: _50  and  _51
REMARK   19  A    between atoms: _50  and  _53
REMARK   20  A    between atoms: _53  and  _54
REMARK   21  A    between atoms: _54  and  _55
REMARK   22  A    between atoms: _57  and  _59
REMARK   23  A    between atoms: _59  and  _60
REMARK   24  A    between atoms: _59  and  _62
REMARK   25  A    between atoms: _62  and  _63
REMARK   26  A    between atoms: _67  and  ZN_298
REMARK   27  A    between atoms: _68  and  _70
REMARK   28  A    between atoms: _70  and  _71
REMARK   29  A    between atoms: _70  and  _73
REMARK   30  A    between atoms: _73  and  _74
REMARK   31  A    between atoms: _75  and  ZN_298
REMARK   32  A    between atoms: _79  and  _81
REMARK   33  A    between atoms: _81  and  _82
REMARK   34  A    between atoms: _85  and  _87
REMARK   35  A    between atoms: _96  and  _97
REMARK   36  A    between atoms: _105  and  _107
REMARK   37  A    between atoms: _107  and  _108
REMARK   38  A    between atoms: _107  and  _110
REMARK   39  A    between atoms: _110  and  _111
REMARK   40  A    between atoms: _114  and  _116
REMARK   41  A    between atoms: _116  and  _117
REMARK   42  A    between atoms: _116  and  _119
REMARK   43  A    between atoms: _119  and  _120
REMARK   44  A    between atoms: _126  and  _128
REMARK   45  A    between atoms: _128  and  _129
REMARK   46  A    between atoms: _128  and  _131
REMARK   47  A    between atoms: _131  and  _132
REMARK   48  A    between atoms: _135  and  _137
REMARK   49  A    between atoms: _137  and  _138
REMARK   50  A    between atoms: _137  and  _140
REMARK   51  A    between atoms: _140  and  _141
REMARK   52  A    between atoms: _145  and  ZN_298
REMARK   53  A    between atoms: _146  and  _148
REMARK   54  A    between atoms: _148  and  _149
REMARK   55  A    between atoms: _148  and  _151
REMARK   56  A    between atoms: _151  and  _152
REMARK   57  A    between atoms: _155  and  _157
REMARK   58  A    between atoms: _157  and  _158
REMARK   59  A    between atoms: _157  and  _160
REMARK   60  A    between atoms: _160  and  _161
REMARK   61  A    between atoms: _164  and  _166
REMARK   62  A    between atoms: _166  and  _167
REMARK   63  A    between atoms: _166  and  _169
REMARK   64  A    between atoms: _169  and  _170
REMARK   65  A    between atoms: _172  and  _174
REMARK   66  A    between atoms: _174  and  _175
REMARK   67  A    between atoms: _174  and  _177
REMARK   68  A    between atoms: _177  and  _178
REMARK   69  A    between atoms: _181  and  _183
REMARK   70  A    between atoms: _183  and  _184
REMARK   71  A    between atoms: _183  and  _186
REMARK   72  A    between atoms: _186  and  _187
REMARK   73  A    between atoms: _189  and  _191
REMARK   74  A    between atoms: _191  and  _192
REMARK   75  A    between atoms: _196  and  _197
REMARK   76  A    between atoms: _202  and  _204
REMARK   77  A    between atoms: _204  and  _205
REMARK   78  A    between atoms: _207  and  _209
REMARK   79  A    between atoms: _209  and  _210
REMARK   80  A    between atoms: _209  and  _212
REMARK   81  A    between atoms: _212  and  _213
REMARK   82  A    between atoms: _218  and  _219
REMARK   83  A    between atoms: _221  and  _223
REMARK   84  A    between atoms: _223  and  _224
REMARK   85  A    between atoms: _223  and  _226
REMARK   86  A    between atoms: _226  and  _227
REMARK   87  A    between atoms: _232  and  _233
REMARK   88  A    between atoms: _236  and  _237
REMARK   89  A    between atoms: _242  and  _244
REMARK   90  A    between atoms: _244  and  _245
REMARK   91  A    between atoms: _244  and  _247
REMARK   92  A    between atoms: _247  and  _248
REMARK   93  A    between atoms: _252  and  ZN_299
REMARK   94  A    between atoms: _253  and  _255
REMARK   95  A    between atoms: _255  and  _256
REMARK   96  A    between atoms: _259  and  _261
REMARK   97  A    between atoms: _261  and  _262
REMARK   98  A    between atoms: _261  and  _264
REMARK   99  A    between atoms: _264  and  _265
REMARK  100  A    between atoms: _270  and  _271
REMARK  101  A    between atoms: _273  and  _275
REMARK  102  A    between atoms: _275  and  _276
REMARK  103  A    between atoms: _275  and  _278
REMARK  104  A    between atoms: _278  and  _279
REMARK  105  A    between atoms: _279  and  _280
REMARK  106  A    between atoms: _280  and  _281
REMARK  107  A    between atoms: _281  and  _282
REMARK  108  A    between atoms: _286  and  _288
REMARK  109  A    between atoms: _288  and  _289
REMARK  110  A    between atoms: _288  and  _291
REMARK  111  A    between atoms: _291  and  _292
REMARK  112  A    between atoms: _292  and  _293
REMARK                            x       y       z     vdW  Elec       q    Type
REMARK                         _______ _______ _______ _____ _____    ______ ____
ROOT
ATOM      1  CG  LYS A   1      12.650  26.569  44.749  0.00  0.00    -0.000 C 
ENDROOT
BRANCH   1   2
ATOM      2  CB  LYS A   1      12.827  27.853  45.579  0.00  0.00    +0.025 C 
BRANCH   2   3
ATOM      3  CA  LYS A   1      13.684  27.554  46.814  0.00  0.00    +0.133 C 
BRANCH   3   4
ATOM      4  N   LYS A   1      13.435  28.491  47.909  0.00  0.00    -0.239 NA
ATOM      5  H   LYS A   1      12.786  29.292  47.769  0.00  0.00    +0.142 HD
ENDBRANCH   3   4
BRANCH   3   6
ATOM      6  C   LYS A   1      15.163  27.514  46.405  0.00  0.00    +0.224 C 
ATOM      7  O   LYS A   1      15.725  26.450  46.167  0.00  0.00    -0.287 OA
ENDBRANCH   3   6
ENDBRANCH   2   3
ENDBRANCH   1   2
BRANCH   1   8
ATOM      8  CD  LYS A   1      12.145  26.801  43.358  0.00  0.00    -0.024 C 
BRANCH   8   9
ATOM      9  CE  LYS A   1      12.072  25.499  42.565  0.00  0.00    -0.086 C 
BRANCH   9  10
ATOM     10  NZ  LYS A   1      11.266  25.717  41.293  0.00  0.00    +0.380 N 
ATOM     11  HZ1 LYS A   1      10.304  26.024  41.542  0.00  0.00    -0.089 HD
ATOM     12  HZ2 LYS A   1      11.219  24.827  40.757  0.00  0.00    -0.089 HD
ATOM     13  HZ3 LYS A   1      11.726  26.448  40.714  0.00  0.00    -0.089 HD
ENDBRANCH   9  10
ENDBRANCH   8   9
ENDBRANCH   1   8
TORSDOF 7
REMARK  Name = ../refined-set-2016/2qdt/2qdt_pocket.pdb
REMARK  112 active torsions:
REMARK  status: ('A' for Active; 'I' for Inactive)
REMARK    1  A    between atoms: _1  and  _3
REMARK    2  A    between atoms: _3  and  _4
REMARK    3  A    between atoms: _3  and  _6
REMARK    4  A    between atoms: _6  and  _7
REMARK    5  A    between atoms: _12  and  _13
REMARK    6  A    between atoms: _15  and  _17
REMARK    7  A    between atoms: _17  and  _18
REMARK    8  A    between atoms: _17  and  _20
REMARK    9  A    between atoms: _23  and  _25
REMARK   10  A    between atoms: _25  and  _26
REMARK   11  A    between atoms: _25  and  _28
REMARK   12  A    between atoms: _28  and  _29
REMARK   13  A    between atoms: _39  and  _41
REMARK   14  A    between atoms: _41  and  _42
REMARK   15  A    between atoms: _41  and  _44
REMARK   16  A    between atoms: _44  and  _45
REMARK   17  A    between atoms: _48  and  _50
REMARK   18  A    between atoms: _50  and  _51
REMARK   19  A    between atoms: _50  and  _53
REMARK   20  A    between atoms: _53  and  _54
REMARK   21  A    between atoms: _54  and  _55
REMARK   22  A    between atoms: _57  and  _59
REMARK   23  A    between atoms: _59  and  _60
REMARK   24  A    between atoms: _59  and  _62
REMARK   25  A    between atoms: _62  and  _63
REMARK   26  A    between atoms: _67  and  ZN_298
REMARK   27  A    between atoms: _68  and  _70
REMARK   28  A    between atoms: _70  and  _71
REMARK   29  A    between atoms: _70  and  _73
REMARK   30  A    between atoms: _73  and  _74
REMARK   31  A    between atoms: _75  and  ZN_298
REMARK   32  A    between atoms: _79  and  _81
REMARK   33  A    between atoms: _81  and  _82
REMARK   34  A    between atoms: _85  and  _87
REMARK   35  A    between atoms: _96  and  _97
REMARK   36  A    between atoms: _105  and  _107
REMARK   37  A    between atoms: _107  and  _108
REMARK   38  A    between atoms: _107  and  _110
REMARK   39  A    between atoms: _110  and  _111
REMARK   40  A    between atoms: _114  and  _116
REMARK   41  A    between atoms: _116  and  _117
REMARK   42  A    between atoms: _116  and  _119
REMARK   43  A    between atoms: _119  and  _120
REMARK   44  A    between atoms: _126  and  _128
REMARK   45  A    between atoms: _128  and  _129
REMARK   46  A    between atoms: _128  and  _131
REMARK   47  A    between atoms: _131  and  _132
REMARK   48  A    between atoms: _135  and  _137
REMARK   49  A    between atoms: _137  and  _138
REMARK   50  A    between atoms: _137  and  _140
REMARK   51  A    between atoms: _140  and  _141
REMARK   52  A    between atoms: _145  and  ZN_298
REMARK   53  A    between atoms: _146  and  _148
REMARK   54  A    between atoms: _148  and  _149
REMARK   55  A    between atoms: _148  and  _151
REMARK   56  A    between atoms: _151  and  _152
REMARK   57  A    between atoms: _155  and  _157
REMARK   58  A    between atoms: _157  and  _158
REMARK   59  A    between atoms: _157  and  _160
REMARK   60  A    between atoms: _160  and  _161
REMARK   61  A    between atoms: _164  and  _166
REMARK   62  A    between atoms: _166  and  _167
REMARK   63  A    between atoms: _166  and  _169
REMARK   64  A    between atoms: _169  and  _170
REMARK   65  A    between atoms: _172  and  _174
REMARK   66  A    between atoms: _174  and  _175
REMARK   67  A    between atoms: _174  and  _177
REMARK   68  A    between atoms: _177  and  _178
REMARK   69  A    between atoms: _181  and  _183
REMARK   70  A    between atoms: _183  and  _184
REMARK   71  A    between atoms: _183  and  _186
REMARK   72  A    between atoms: _186  and  _187
REMARK   73  A    between atoms: _189  and  _191
REMARK   74  A    between atoms: _191  and  _192
REMARK   75  A    between atoms: _196  and  _197
REMARK   76  A    between atoms: _202  and  _204
REMARK   77  A    between atoms: _204  and  _205
REMARK   78  A    between atoms: _207  and  _209
REMARK   79  A    between atoms: _209  and  _210
REMARK   80  A    between atoms: _209  and  _212
REMARK   81  A    between atoms: _212  and  _213
REMARK   82  A    between atoms: _218  and  _219
REMARK   83  A    between atoms: _221  and  _223
REMARK   84  A    between atoms: _223  and  _224
REMARK   85  A    between atoms: _223  and  _226
REMARK   86  A    between atoms: _226  and  _227
REMARK   87  A    between atoms: _232  and  _233
REMARK   88  A    between atoms: _236  and  _237
REMARK   89  A    between atoms: _242  and  _244
REMARK   90  A    between atoms: _244  and  _245
REMARK   91  A    between atoms: _244  and  _247
REMARK   92  A    between atoms: _247  and  _248
REMARK   93  A    between atoms: _252  and  ZN_299
REMARK   94  A    between atoms: _253  and  _255
REMARK   95  A    between atoms: _255  and  _256
REMARK   96  A    between atoms: _259  and  _261
REMARK   97  A    between atoms: _261  and  _262
REMARK   98  A    between atoms: _261  and  _264
REMARK   99  A    between atoms: _264  and  _265
REMARK  100  A    between atoms: _270  and  _271
REMARK  101  A    between atoms: _273  and  _275
REMARK  102  A    between atoms: _275  and  _276
REMARK  103  A    between atoms: _275  and  _278
REMARK  104  A    between atoms: _278  and  _279
REMARK  105  A    between atoms: _279  and  _280
REMARK  106  A    between atoms: _280  and  _281
REMARK  107  A    between atoms: _281  and  _282
REMARK  108  A    between atoms: _286  and  _288
REMARK  109  A    between atoms: _288  and  _289
REMARK  110  A    between atoms: _288  and  _291
REMARK  111  A    between atoms: _291  and  _292
REMARK  112  A    between atoms: _292  and  _293
REMARK                            x       y       z     vdW  Elec       q    Type
REMARK                         _______ _______ _______ _____ _____    ______ ____
ROOT
ATOM      1  CB  GLN A   1      18.361  25.181  44.043  0.00  0.00    +0.035 C 
ENDROOT
BRANCH   1   2
ATOM      2  CA  GLN A   1      18.709  24.196  45.180  0.00  0.00    +0.134 C 
BRANCH   2   3
ATOM      3  N   GLN A   1      17.984  24.549  46.386  0.00  0.00    -0.239 NA
ATOM      4  H   GLN A   1      17.483  25.459  46.428  0.00  0.00    +0.142 HD
ENDBRANCH   2   3
BRANCH   2   5
ATOM      5  C   GLN A   1      20.206  24.172  45.489  0.00  0.00    +0.224 C 
ATOM      6  O   GLN A   1      20.925  23.301  45.004  0.00  0.00    -0.287 OA
ENDBRANCH   2   5
ENDBRANCH   1   2
BRANCH   1   7
ATOM      7  CG  GLN A   1      18.992  24.828  42.707  0.00  0.00    +0.087 C 
BRANCH   7   8
ATOM      8  CD  GLN A   1      18.499  25.707  41.520  0.00  0.00    +0.219 C 
ATOM      9  OE1 GLN A   1      17.498  26.418  41.630  0.00  0.00    -0.275 OA
ATOM     10  NE2 GLN A   1      19.200  25.620  40.383  0.00  0.00    -0.329 N 
ATOM     11 HE21 GLN A   1      20.039  25.007  40.335  0.00  0.00    +0.145 HD
ATOM     12 HE22 GLN A   1      18.906  26.165  39.548  0.00  0.00    +0.145 HD
ENDBRANCH   7   8
ENDBRANCH   1   7
TORSDOF 5
REMARK  Name = ../refined-set-2016/2qdt/2qdt_pocket.pdb
REMARK  112 active torsions:
REMARK  status: ('A' for Active; 'I' for Inactive)
REMARK    1  A    between atoms: _1  and  _3
REMARK    2  A    between atoms: _3  and  _4
REMARK    3  A    between atoms: _3  and  _6
REMARK    4  A    between atoms: _6  and  _7
REMARK    5  A    between atoms: _12  and  _13
REMARK    6  A    between atoms: _15  and  _17
REMARK    7  A    between atoms: _17  and  _18
REMARK    8  A    between atoms: _17  and  _20
REMARK    9  A    between atoms: _23  and  _25
REMARK   10  A    between atoms: _25  and  _26
REMARK   11  A    between atoms: _25  and  _28
REMARK   12  A    between atoms: _28  and  _29
REMARK   13  A    between atoms: _39  and  _41
REMARK   14  A    between atoms: _41  and  _42
REMARK   15  A    between atoms: _41  and  _44
REMARK   16  A    between atoms: _44  and  _45
REMARK   17  A    between atoms: _48  and  _50
REMARK   18  A    between atoms: _50  and  _51
REMARK   19  A    between atoms: _50  and  _53
REMARK   20  A    between atoms: _53  and  _54
REMARK   21  A    between atoms: _54  and  _55
REMARK   22  A    between atoms: _57  and  _59
REMARK   23  A    between atoms: _59  and  _60
REMARK   24  A    between atoms: _59  and  _62
REMARK   25  A    between atoms: _62  and  _63
REMARK   26  A    between atoms: _67  and  ZN_298
REMARK   27  A    between atoms: _68  and  _70
REMARK   28  A    between atoms: _70  and  _71
REMARK   29  A    between atoms: _70  and  _73
REMARK   30  A    between atoms: _73  and  _74
REMARK   31  A    between atoms: _75  and  ZN_298
REMARK   32  A    between atoms: _79  and  _81
REMARK   33  A    between atoms: _81  and  _82
REMARK   34  A    between atoms: _85  and  _87
REMARK   35  A    between atoms: _96  and  _97
REMARK   36  A    between atoms: _105  and  _107
REMARK   37  A    between atoms: _107  and  _108
REMARK   38  A    between atoms: _107  and  _110
REMARK   39  A    between atoms: _110  and  _111
REMARK   40  A    between atoms: _114  and  _116
REMARK   41  A    between atoms: _116  and  _117
REMARK   42  A    between atoms: _116  and  _119
REMARK   43  A    between atoms: _119  and  _120
REMARK   44  A    between atoms: _126  and  _128
REMARK   45  A    between atoms: _128  and  _129
REMARK   46  A    between atoms: _128  and  _131
REMARK   47  A    between atoms: _131  and  _132
REMARK   48  A    between atoms: _135  and  _137
REMARK   49  A    between atoms: _137  and  _138
REMARK   50  A    between atoms: _137  and  _140
REMARK   51  A    between atoms: _140  and  _141
REMARK   52  A    between atoms: _145  and  ZN_298
REMARK   53  A    between atoms: _146  and  _148
REMARK   54  A    between atoms: _148  and  _149
REMARK   55  A    between atoms: _148  and  _151
REMARK   56  A    between atoms: _151  and  _152
REMARK   57  A    between atoms: _155  and  _157
REMARK   58  A    between atoms: _157  and  _158
REMARK   59  A    between atoms: _157  and  _160
REMARK   60  A    between atoms: _160  and  _161
REMARK   61  A    between atoms: _164  and  _166
REMARK   62  A    between atoms: _166  and  _167
REMARK   63  A    between atoms: _166  and  _169
REMARK   64  A    between atoms: _169  and  _170
REMARK   65  A    between atoms: _172  and  _174
REMARK   66  A    between atoms: _174  and  _175
REMARK   67  A    between atoms: _174  and  _177
REMARK   68  A    between atoms: _177  and  _178
REMARK   69  A    between atoms: _181  and  _183
REMARK   70  A    between atoms: _183  and  _184
REMARK   71  A    between atoms: _183  and  _186
REMARK   72  A    between atoms: _186  and  _187
REMARK   73  A    between atoms: _189  and  _191
REMARK   74  A    between atoms: _191  and  _192
REMARK   75  A    between atoms: _196  and  _197
REMARK   76  A    between atoms: _202  and  _204
REMARK   77  A    between atoms: _204  and  _205
REMARK   78  A    between atoms: _207  and  _209
REMARK   79  A    between atoms: _209  and  _210
REMARK   80  A    between atoms: _209  and  _212
REMARK   81  A    between atoms: _212  and  _213
REMARK   82  A    between atoms: _218  and  _219
REMARK   83  A    between atoms: _221  and  _223
REMARK   84  A    between atoms: _223  and  _224
REMARK   85  A    between atoms: _223  and  _226
REMARK   86  A    between atoms: _226  and  _227
REMARK   87  A    between atoms: _232  and  _233
REMARK   88  A    between atoms: _236  and  _237
REMARK   89  A    between atoms: _242  and  _244
REMARK   90  A    between atoms: _244  and  _245
REMARK   91  A    between atoms: _244  and  _247
REMARK   92  A    between atoms: _247  and  _248
REMARK   93  A    between atoms: _252  and  ZN_299
REMARK   94  A    between atoms: _253  and  _255
REMARK   95  A    between atoms: _255  and  _256
REMARK   96  A    between atoms: _259  and  _261
REMARK   97  A    between atoms: _261  and  _262
REMARK   98  A    between atoms: _261  and  _264
REMARK   99  A    between atoms: _264  and  _265
REMARK  100  A    between atoms: _270  and  _271
REMARK  101  A    between atoms: _273  and  _275
REMARK  102  A    between atoms: _275  and  _276
REMARK  103  A    between atoms: _275  and  _278
REMARK  104  A    between atoms: _278  and  _279
REMARK  105  A    between atoms: _279  and  _280
REMARK  106  A    between atoms: _280  and  _281
REMARK  107  A    between atoms: _281  and  _282
REMARK  108  A    between atoms: _286  and  _288
REMARK  109  A    between atoms: _288  and  _289
REMARK  110  A    between atoms: _288  and  _291
REMARK  111  A    between atoms: _291  and  _292
REMARK  112  A    between atoms: _292  and  _293
REMARK                            x       y       z     vdW  Elec       q    Type
REMARK                         _______ _______ _______ _____ _____    ______ ____
ROOT
ATOM      1  O   HOH     1      11.513  31.676  35.131  0.00  0.00    +0.000 OA
ENDROOT
TORSDOF 0
REMARK  Name = ../refined-set-2016/2qdt/2qdt_pocket.pdb
REMARK  112 active torsions:
REMARK  status: ('A' for Active; 'I' for Inactive)
REMARK    1  A    between atoms: _1  and  _3
REMARK    2  A    between atoms: _3  and  _4
REMARK    3  A    between atoms: _3  and  _6
REMARK    4  A    between atoms: _6  and  _7
REMARK    5  A    between atoms: _12  and  _13
REMARK    6  A    between atoms: _15  and  _17
REMARK    7  A    between atoms: _17  and  _18
REMARK    8  A    between atoms: _17  and  _20
REMARK    9  A    between atoms: _23  and  _25
REMARK   10  A    between atoms: _25  and  _26
REMARK   11  A    between atoms: _25  and  _28
REMARK   12  A    between atoms: _28  and  _29
REMARK   13  A    between atoms: _39  and  _41
REMARK   14  A    between atoms: _41  and  _42
REMARK   15  A    between atoms: _41  and  _44
REMARK   16  A    between atoms: _44  and  _45
REMARK   17  A    between atoms: _48  and  _50
REMARK   18  A    between atoms: _50  and  _51
REMARK   19  A    between atoms: _50  and  _53
REMARK   20  A    between atoms: _53  and  _54
REMARK   21  A    between atoms: _54  and  _55
REMARK   22  A    between atoms: _57  and  _59
REMARK   23  A    between atoms: _59  and  _60
REMARK   24  A    between atoms: _59  and  _62
REMARK   25  A    between atoms: _62  and  _63
REMARK   26  A    between atoms: _67  and  ZN_298
REMARK   27  A    between atoms: _68  and  _70
REMARK   28  A    between atoms: _70  and  _71
REMARK   29  A    between atoms: _70  and  _73
REMARK   30  A    between atoms: _73  and  _74
REMARK   31  A    between atoms: _75  and  ZN_298
REMARK   32  A    between atoms: _79  and  _81
REMARK   33  A    between atoms: _81  and  _82
REMARK   34  A    between atoms: _85  and  _87
REMARK   35  A    between atoms: _96  and  _97
REMARK   36  A    between atoms: _105  and  _107
REMARK   37  A    between atoms: _107  and  _108
REMARK   38  A    between atoms: _107  and  _110
REMARK   39  A    between atoms: _110  and  _111
REMARK   40  A    between atoms: _114  and  _116
REMARK   41  A    between atoms: _116  and  _117
REMARK   42  A    between atoms: _116  and  _119
REMARK   43  A    between atoms: _119  and  _120
REMARK   44  A    between atoms: _126  and  _128
REMARK   45  A    between atoms: _128  and  _129
REMARK   46  A    between atoms: _128  and  _131
REMARK   47  A    between atoms: _131  and  _132
REMARK   48  A    between atoms: _135  and  _137
REMARK   49  A    between atoms: _137  and  _138
REMARK   50  A    between atoms: _137  and  _140
REMARK   51  A    between atoms: _140  and  _141
REMARK   52  A    between atoms: _145  and  ZN_298
REMARK   53  A    between atoms: _146  and  _148
REMARK   54  A    between atoms: _148  and  _149
REMARK   55  A    between atoms: _148  and  _151
REMARK   56  A    between atoms: _151  and  _152
REMARK   57  A    between atoms: _155  and  _157
REMARK   58  A    between atoms: _157  and  _158
REMARK   59  A    between atoms: _157  and  _160
REMARK   60  A    between atoms: _160  and  _161
REMARK   61  A    between atoms: _164  and  _166
REMARK   62  A    between atoms: _166  and  _167
REMARK   63  A    between atoms: _166  and  _169
REMARK   64  A    between atoms: _169  and  _170
REMARK   65  A    between atoms: _172  and  _174
REMARK   66  A    between atoms: _174  and  _175
REMARK   67  A    between atoms: _174  and  _177
REMARK   68  A    between atoms: _177  and  _178
REMARK   69  A    between atoms: _181  and  _183
REMARK   70  A    between atoms: _183  and  _184
REMARK   71  A    between atoms: _183  and  _186
REMARK   72  A    between atoms: _186  and  _187
REMARK   73  A    between atoms: _189  and  _191
REMARK   74  A    between atoms: _191  and  _192
REMARK   75  A    between atoms: _196  and  _197
REMARK   76  A    between atoms: _202  and  _204
REMARK   77  A    between atoms: _204  and  _205
REMARK   78  A    between atoms: _207  and  _209
REMARK   79  A    between atoms: _209  and  _210
REMARK   80  A    between atoms: _209  and  _212
REMARK   81  A    between atoms: _212  and  _213
REMARK   82  A    between atoms: _218  and  _219
REMARK   83  A    between atoms: _221  and  _223
REMARK   84  A    between atoms: _223  and  _224
REMARK   85  A    between atoms: _223  and  _226
REMARK   86  A    between atoms: _226  and  _227
REMARK   87  A    between atoms: _232  and  _233
REMARK   88  A    between atoms: _236  and  _237
REMARK   89  A    between atoms: _242  and  _244
REMARK   90  A    between atoms: _244  and  _245
REMARK   91  A    between atoms: _244  and  _247
REMARK   92  A    between atoms: _247  and  _248
REMARK   93  A    between atoms: _252  and  ZN_299
REMARK   94  A    between atoms: _253  and  _255
REMARK   95  A    between atoms: _255  and  _256
REMARK   96  A    between atoms: _259  and  _261
REMARK   97  A    between atoms: _261  and  _262
REMARK   98  A    between atoms: _261  and  _264
REMARK   99  A    between atoms: _264  and  _265
REMARK  100  A    between atoms: _270  and  _271
REMARK  101  A    between atoms: _273  and  _275
REMARK  102  A    between atoms: _275  and  _276
REMARK  103  A    between atoms: _275  and  _278
REMARK  104  A    between atoms: _278  and  _279
REMARK  105  A    between atoms: _279  and  _280
REMARK  106  A    between atoms: _280  and  _281
REMARK  107  A    between atoms: _281  and  _282
REMARK  108  A    between atoms: _286  and  _288
REMARK  109  A    between atoms: _288  and  _289
REMARK  110  A    between atoms: _288  and  _291
REMARK  111  A    between atoms: _291  and  _292
REMARK  112  A    between atoms: _292  and  _293
REMARK                            x       y       z     vdW  Elec       q    Type
REMARK                         _______ _______ _______ _____ _____    ______ ____
ROOT
ATOM      1  O   HOH     1       9.585  32.066  36.928  0.00  0.00    +0.000 OA
ENDROOT
TORSDOF 0
REMARK  Name = ../refined-set-2016/2qdt/2qdt_pocket.pdb
REMARK  112 active torsions:
REMARK  status: ('A' for Active; 'I' for Inactive)
REMARK    1  A    between atoms: _1  and  _3
REMARK    2  A    between atoms: _3  and  _4
REMARK    3  A    between atoms: _3  and  _6
REMARK    4  A    between atoms: _6  and  _7
REMARK    5  A    between atoms: _12  and  _13
REMARK    6  A    between atoms: _15  and  _17
REMARK    7  A    between atoms: _17  and  _18
REMARK    8  A    between atoms: _17  and  _20
REMARK    9  A    between atoms: _23  and  _25
REMARK   10  A    between atoms: _25  and  _26
REMARK   11  A    between atoms: _25  and  _28
REMARK   12  A    between atoms: _28  and  _29
REMARK   13  A    between atoms: _39  and  _41
REMARK   14  A    between atoms: _41  and  _42
REMARK   15  A    between atoms: _41  and  _44
REMARK   16  A    between atoms: _44  and  _45
REMARK   17  A    between atoms: _48  and  _50
REMARK   18  A    between atoms: _50  and  _51
REMARK   19  A    between atoms: _50  and  _53
REMARK   20  A    between atoms: _53  and  _54
REMARK   21  A    between atoms: _54  and  _55
REMARK   22  A    between atoms: _57  and  _59
REMARK   23  A    between atoms: _59  and  _60
REMARK   24  A    between atoms: _59  and  _62
REMARK   25  A    between atoms: _62  and  _63
REMARK   26  A    between atoms: _67  and  ZN_298
REMARK   27  A    between atoms: _68  and  _70
REMARK   28  A    between atoms: _70  and  _71
REMARK   29  A    between atoms: _70  and  _73
REMARK   30  A    between atoms: _73  and  _74
REMARK   31  A    between atoms: _75  and  ZN_298
REMARK   32  A    between atoms: _79  and  _81
REMARK   33  A    between atoms: _81  and  _82
REMARK   34  A    between atoms: _85  and  _87
REMARK   35  A    between atoms: _96  and  _97
REMARK   36  A    between atoms: _105  and  _107
REMARK   37  A    between atoms: _107  and  _108
REMARK   38  A    between atoms: _107  and  _110
REMARK   39  A    between atoms: _110  and  _111
REMARK   40  A    between atoms: _114  and  _116
REMARK   41  A    between atoms: _116  and  _117
REMARK   42  A    between atoms: _116  and  _119
REMARK   43  A    between atoms: _119  and  _120
REMARK   44  A    between atoms: _126  and  _128
REMARK   45  A    between atoms: _128  and  _129
REMARK   46  A    between atoms: _128  and  _131
REMARK   47  A    between atoms: _131  and  _132
REMARK   48  A    between atoms: _135  and  _137
REMARK   49  A    between atoms: _137  and  _138
REMARK   50  A    between atoms: _137  and  _140
REMARK   51  A    between atoms: _140  and  _141
REMARK   52  A    between atoms: _145  and  ZN_298
REMARK   53  A    between atoms: _146  and  _148
REMARK   54  A    between atoms: _148  and  _149
REMARK   55  A    between atoms: _148  and  _151
REMARK   56  A    between atoms: _151  and  _152
REMARK   57  A    between atoms: _155  and  _157
REMARK   58  A    between atoms: _157  and  _158
REMARK   59  A    between atoms: _157  and  _160
REMARK   60  A    between atoms: _160  and  _161
REMARK   61  A    between atoms: _164  and  _166
REMARK   62  A    between atoms: _166  and  _167
REMARK   63  A    between atoms: _166  and  _169
REMARK   64  A    between atoms: _169  and  _170
REMARK   65  A    between atoms: _172  and  _174
REMARK   66  A    between atoms: _174  and  _175
REMARK   67  A    between atoms: _174  and  _177
REMARK   68  A    between atoms: _177  and  _178
REMARK   69  A    between atoms: _181  and  _183
REMARK   70  A    between atoms: _183  and  _184
REMARK   71  A    between atoms: _183  and  _186
REMARK   72  A    between atoms: _186  and  _187
REMARK   73  A    between atoms: _189  and  _191
REMARK   74  A    between atoms: _191  and  _192
REMARK   75  A    between atoms: _196  and  _197
REMARK   76  A    between atoms: _202  and  _204
REMARK   77  A    between atoms: _204  and  _205
REMARK   78  A    between atoms: _207  and  _209
REMARK   79  A    between atoms: _209  and  _210
REMARK   80  A    between atoms: _209  and  _212
REMARK   81  A    between atoms: _212  and  _213
REMARK   82  A    between atoms: _218  and  _219
REMARK   83  A    between atoms: _221  and  _223
REMARK   84  A    between atoms: _223  and  _224
REMARK   85  A    between atoms: _223  and  _226
REMARK   86  A    between atoms: _226  and  _227
REMARK   87  A    between atoms: _232  and  _233
REMARK   88  A    between atoms: _236  and  _237
REMARK   89  A    between atoms: _242  and  _244
REMARK   90  A    between atoms: _244  and  _245
REMARK   91  A    between atoms: _244  and  _247
REMARK   92  A    between atoms: _247  and  _248
REMARK   93  A    between atoms: _252  and  ZN_299
REMARK   94  A    between atoms: _253  and  _255
REMARK   95  A    between atoms: _255  and  _256
REMARK   96  A    between atoms: _259  and  _261
REMARK   97  A    between atoms: _261  and  _262
REMARK   98  A    between atoms: _261  and  _264
REMARK   99  A    between atoms: _264  and  _265
REMARK  100  A    between atoms: _270  and  _271
REMARK  101  A    between atoms: _273  and  _275
REMARK  102  A    between atoms: _275  and  _276
REMARK  103  A    between atoms: _275  and  _278
REMARK  104  A    between atoms: _278  and  _279
REMARK  105  A    between atoms: _279  and  _280
REMARK  106  A    between atoms: _280  and  _281
REMARK  107  A    between atoms: _281  and  _282
REMARK  108  A    between atoms: _286  and  _288
REMARK  109  A    between atoms: _288  and  _289
REMARK  110  A    between atoms: _288  and  _291
REMARK  111  A    between atoms: _291  and  _292
REMARK  112  A    between atoms: _292  and  _293
REMARK                            x       y       z     vdW  Elec       q    Type
REMARK                         _______ _______ _______ _____ _____    ______ ____
ROOT
ATOM      1  O   HOH     1      12.012  28.053  40.464  0.00  0.00    +0.000 OA
ENDROOT
TORSDOF 0
REMARK  Name = ../refined-set-2016/2qdt/2qdt_pocket.pdb
REMARK  112 active torsions:
REMARK  status: ('A' for Active; 'I' for Inactive)
REMARK    1  A    between atoms: _1  and  _3
REMARK    2  A    between atoms: _3  and  _4
REMARK    3  A    between atoms: _3  and  _6
REMARK    4  A    between atoms: _6  and  _7
REMARK    5  A    between atoms: _12  and  _13
REMARK    6  A    between atoms: _15  and  _17
REMARK    7  A    between atoms: _17  and  _18
REMARK    8  A    between atoms: _17  and  _20
REMARK    9  A    between atoms: _23  and  _25
REMARK   10  A    between atoms: _25  and  _26
REMARK   11  A    between atoms: _25  and  _28
REMARK   12  A    between atoms: _28  and  _29
REMARK   13  A    between atoms: _39  and  _41
REMARK   14  A    between atoms: _41  and  _42
REMARK   15  A    between atoms: _41  and  _44
REMARK   16  A    between atoms: _44  and  _45
REMARK   17  A    between atoms: _48  and  _50
REMARK   18  A    between atoms: _50  and  _51
REMARK   19  A    between atoms: _50  and  _53
REMARK   20  A    between atoms: _53  and  _54
REMARK   21  A    between atoms: _54  and  _55
REMARK   22  A    between atoms: _57  and  _59
REMARK   23  A    between atoms: _59  and  _60
REMARK   24  A    between atoms: _59  and  _62
REMARK   25  A    between atoms: _62  and  _63
REMARK   26  A    between atoms: _67  and  ZN_298
REMARK   27  A    between atoms: _68  and  _70
REMARK   28  A    between atoms: _70  and  _71
REMARK   29  A    between atoms: _70  and  _73
REMARK   30  A    between atoms: _73  and  _74
REMARK   31  A    between atoms: _75  and  ZN_298
REMARK   32  A    between atoms: _79  and  _81
REMARK   33  A    between atoms: _81  and  _82
REMARK   34  A    between atoms: _85  and  _87
REMARK   35  A    between atoms: _96  and  _97
REMARK   36  A    between atoms: _105  and  _107
REMARK   37  A    between atoms: _107  and  _108
REMARK   38  A    between atoms: _107  and  _110
REMARK   39  A    between atoms: _110  and  _111
REMARK   40  A    between atoms: _114  and  _116
REMARK   41  A    between atoms: _116  and  _117
REMARK   42  A    between atoms: _116  and  _119
REMARK   43  A    between atoms: _119  and  _120
REMARK   44  A    between atoms: _126  and  _128
REMARK   45  A    between atoms: _128  and  _129
REMARK   46  A    between atoms: _128  and  _131
REMARK   47  A    between atoms: _131  and  _132
REMARK   48  A    between atoms: _135  and  _137
REMARK   49  A    between atoms: _137  and  _138
REMARK   50  A    between atoms: _137  and  _140
REMARK   51  A    between atoms: _140  and  _141
REMARK   52  A    between atoms: _145  and  ZN_298
REMARK   53  A    between atoms: _146  and  _148
REMARK   54  A    between atoms: _148  and  _149
REMARK   55  A    between atoms: _148  and  _151
REMARK   56  A    between atoms: _151  and  _152
REMARK   57  A    between atoms: _155  and  _157
REMARK   58  A    between atoms: _157  and  _158
REMARK   59  A    between atoms: _157  and  _160
REMARK   60  A    between atoms: _160  and  _161
REMARK   61  A    between atoms: _164  and  _166
REMARK   62  A    between atoms: _166  and  _167
REMARK   63  A    between atoms: _166  and  _169
REMARK   64  A    between atoms: _169  and  _170
REMARK   65  A    between atoms: _172  and  _174
REMARK   66  A    between atoms: _174  and  _175
REMARK   67  A    between atoms: _174  and  _177
REMARK   68  A    between atoms: _177  and  _178
REMARK   69  A    between atoms: _181  and  _183
REMARK   70  A    between atoms: _183  and  _184
REMARK   71  A    between atoms: _183  and  _186
REMARK   72  A    between atoms: _186  and  _187
REMARK   73  A    between atoms: _189  and  _191
REMARK   74  A    between atoms: _191  and  _192
REMARK   75  A    between atoms: _196  and  _197
REMARK   76  A    between atoms: _202  and  _204
REMARK   77  A    between atoms: _204  and  _205
REMARK   78  A    between atoms: _207  and  _209
REMARK   79  A    between atoms: _209  and  _210
REMARK   80  A    between atoms: _209  and  _212
REMARK   81  A    between atoms: _212  and  _213
REMARK   82  A    between atoms: _218  and  _219
REMARK   83  A    between atoms: _221  and  _223
REMARK   84  A    between atoms: _223  and  _224
REMARK   85  A    between atoms: _223  and  _226
REMARK   86  A    between atoms: _226  and  _227
REMARK   87  A    between atoms: _232  and  _233
REMARK   88  A    between atoms: _236  and  _237
REMARK   89  A    between atoms: _242  and  _244
REMARK   90  A    between atoms: _244  and  _245
REMARK   91  A    between atoms: _244  and  _247
REMARK   92  A    between atoms: _247  and  _248
REMARK   93  A    between atoms: _252  and  ZN_299
REMARK   94  A    between atoms: _253  and  _255
REMARK   95  A    between atoms: _255  and  _256
REMARK   96  A    between atoms: _259  and  _261
REMARK   97  A    between atoms: _261  and  _262
REMARK   98  A    between atoms: _261  and  _264
REMARK   99  A    between atoms: _264  and  _265
REMARK  100  A    between atoms: _270  and  _271
REMARK  101  A    between atoms: _273  and  _275
REMARK  102  A    between atoms: _275  and  _276
REMARK  103  A    between atoms: _275  and  _278
REMARK  104  A    between atoms: _278  and  _279
REMARK  105  A    between atoms: _279  and  _280
REMARK  106  A    between atoms: _280  and  _281
REMARK  107  A    between atoms: _281  and  _282
REMARK  108  A    between atoms: _286  and  _288
REMARK  109  A    between atoms: _288  and  _289
REMARK  110  A    between atoms: _288  and  _291
REMARK  111  A    between atoms: _291  and  _292
REMARK  112  A    between atoms: _292  and  _293
REMARK                            x       y       z     vdW  Elec       q    Type
REMARK                         _______ _______ _______ _____ _____    ______ ____
ROOT
ATOM      1  O   HOH     1       7.778  29.953  40.972  0.00  0.00    +0.000 OA
ENDROOT
TORSDOF 0
REMARK  Name = ../refined-set-2016/2qdt/2qdt_pocket.pdb
REMARK  112 active torsions:
REMARK  status: ('A' for Active; 'I' for Inactive)
REMARK    1  A    between atoms: _1  and  _3
REMARK    2  A    between atoms: _3  and  _4
REMARK    3  A    between atoms: _3  and  _6
REMARK    4  A    between atoms: _6  and  _7
REMARK    5  A    between atoms: _12  and  _13
REMARK    6  A    between atoms: _15  and  _17
REMARK    7  A    between atoms: _17  and  _18
REMARK    8  A    between atoms: _17  and  _20
REMARK    9  A    between atoms: _23  and  _25
REMARK   10  A    between atoms: _25  and  _26
REMARK   11  A    between atoms: _25  and  _28
REMARK   12  A    between atoms: _28  and  _29
REMARK   13  A    between atoms: _39  and  _41
REMARK   14  A    between atoms: _41  and  _42
REMARK   15  A    between atoms: _41  and  _44
REMARK   16  A    between atoms: _44  and  _45
REMARK   17  A    between atoms: _48  and  _50
REMARK   18  A    between atoms: _50  and  _51
REMARK   19  A    between atoms: _50  and  _53
REMARK   20  A    between atoms: _53  and  _54
REMARK   21  A    between atoms: _54  and  _55
REMARK   22  A    between atoms: _57  and  _59
REMARK   23  A    between atoms: _59  and  _60
REMARK   24  A    between atoms: _59  and  _62
REMARK   25  A    between atoms: _62  and  _63
REMARK   26  A    between atoms: _67  and  ZN_298
REMARK   27  A    between atoms: _68  and  _70
REMARK   28  A    between atoms: _70  and  _71
REMARK   29  A    between atoms: _70  and  _73
REMARK   30  A    between atoms: _73  and  _74
REMARK   31  A    between atoms: _75  and  ZN_298
REMARK   32  A    between atoms: _79  and  _81
REMARK   33  A    between atoms: _81  and  _82
REMARK   34  A    between atoms: _85  and  _87
REMARK   35  A    between atoms: _96  and  _97
REMARK   36  A    between atoms: _105  and  _107
REMARK   37  A    between atoms: _107  and  _108
REMARK   38  A    between atoms: _107  and  _110
REMARK   39  A    between atoms: _110  and  _111
REMARK   40  A    between atoms: _114  and  _116
REMARK   41  A    between atoms: _116  and  _117
REMARK   42  A    between atoms: _116  and  _119
REMARK   43  A    between atoms: _119  and  _120
REMARK   44  A    between atoms: _126  and  _128
REMARK   45  A    between atoms: _128  and  _129
REMARK   46  A    between atoms: _128  and  _131
REMARK   47  A    between atoms: _131  and  _132
REMARK   48  A    between atoms: _135  and  _137
REMARK   49  A    between atoms: _137  and  _138
REMARK   50  A    between atoms: _137  and  _140
REMARK   51  A    between atoms: _140  and  _141
REMARK   52  A    between atoms: _145  and  ZN_298
REMARK   53  A    between atoms: _146  and  _148
REMARK   54  A    between atoms: _148  and  _149
REMARK   55  A    between atoms: _148  and  _151
REMARK   56  A    between atoms: _151  and  _152
REMARK   57  A    between atoms: _155  and  _157
REMARK   58  A    between atoms: _157  and  _158
REMARK   59  A    between atoms: _157  and  _160
REMARK   60  A    between atoms: _160  and  _161
REMARK   61  A    between atoms: _164  and  _166
REMARK   62  A    between atoms: _166  and  _167
REMARK   63  A    between atoms: _166  and  _169
REMARK   64  A    between atoms: _169  and  _170
REMARK   65  A    between atoms: _172  and  _174
REMARK   66  A    between atoms: _174  and  _175
REMARK   67  A    between atoms: _174  and  _177
REMARK   68  A    between atoms: _177  and  _178
REMARK   69  A    between atoms: _181  and  _183
REMARK   70  A    between atoms: _183  and  _184
REMARK   71  A    between atoms: _183  and  _186
REMARK   72  A    between atoms: _186  and  _187
REMARK   73  A    between atoms: _189  and  _191
REMARK   74  A    between atoms: _191  and  _192
REMARK   75  A    between atoms: _196  and  _197
REMARK   76  A    between atoms: _202  and  _204
REMARK   77  A    between atoms: _204  and  _205
REMARK   78  A    between atoms: _207  and  _209
REMARK   79  A    between atoms: _209  and  _210
REMARK   80  A    between atoms: _209  and  _212
REMARK   81  A    between atoms: _212  and  _213
REMARK   82  A    between atoms: _218  and  _219
REMARK   83  A    between atoms: _221  and  _223
REMARK   84  A    between atoms: _223  and  _224
REMARK   85  A    between atoms: _223  and  _226
REMARK   86  A    between atoms: _226  and  _227
REMARK   87  A    between atoms: _232  and  _233
REMARK   88  A    between atoms: _236  and  _237
REMARK   89  A    between atoms: _242  and  _244
REMARK   90  A    between atoms: _244  and  _245
REMARK   91  A    between atoms: _244  and  _247
REMARK   92  A    between atoms: _247  and  _248
REMARK   93  A    between atoms: _252  and  ZN_299
REMARK   94  A    between atoms: _253  and  _255
REMARK   95  A    between atoms: _255  and  _256
REMARK   96  A    between atoms: _259  and  _261
REMARK   97  A    between atoms: _261  and  _262
REMARK   98  A    between atoms: _261  and  _264
REMARK   99  A    between atoms: _264  and  _265
REMARK  100  A    between atoms: _270  and  _271
REMARK  101  A    between atoms: _273  and  _275
REMARK  102  A    between atoms: _275  and  _276
REMARK  103  A    between atoms: _275  and  _278
REMARK  104  A    between atoms: _278  and  _279
REMARK  105  A    between atoms: _279  and  _280
REMARK  106  A    between atoms: _280  and  _281
REMARK  107  A    between atoms: _281  and  _282
REMARK  108  A    between atoms: _286  and  _288
REMARK  109  A    between atoms: _288  and  _289
REMARK  110  A    between atoms: _288  and  _291
REMARK  111  A    between atoms: _291  and  _292
REMARK  112  A    between atoms: _292  and  _293
REMARK                            x       y       z     vdW  Elec       q    Type
REMARK                         _______ _______ _______ _____ _____    ______ ____
ROOT
ATOM      1  O   HOH     1      14.935  25.782  30.932  0.00  0.00    +0.000 OA
ENDROOT
TORSDOF 0
REMARK  Name = ../refined-set-2016/2qdt/2qdt_pocket.pdb
REMARK  112 active torsions:
REMARK  status: ('A' for Active; 'I' for Inactive)
REMARK    1  A    between atoms: _1  and  _3
REMARK    2  A    between atoms: _3  and  _4
REMARK    3  A    between atoms: _3  and  _6
REMARK    4  A    between atoms: _6  and  _7
REMARK    5  A    between atoms: _12  and  _13
REMARK    6  A    between atoms: _15  and  _17
REMARK    7  A    between atoms: _17  and  _18
REMARK    8  A    between atoms: _17  and  _20
REMARK    9  A    between atoms: _23  and  _25
REMARK   10  A    between atoms: _25  and  _26
REMARK   11  A    between atoms: _25  and  _28
REMARK   12  A    between atoms: _28  and  _29
REMARK   13  A    between atoms: _39  and  _41
REMARK   14  A    between atoms: _41  and  _42
REMARK   15  A    between atoms: _41  and  _44
REMARK   16  A    between atoms: _44  and  _45
REMARK   17  A    between atoms: _48  and  _50
REMARK   18  A    between atoms: _50  and  _51
REMARK   19  A    between atoms: _50  and  _53
REMARK   20  A    between atoms: _53  and  _54
REMARK   21  A    between atoms: _54  and  _55
REMARK   22  A    between atoms: _57  and  _59
REMARK   23  A    between atoms: _59  and  _60
REMARK   24  A    between atoms: _59  and  _62
REMARK   25  A    between atoms: _62  and  _63
REMARK   26  A    between atoms: _67  and  ZN_298
REMARK   27  A    between atoms: _68  and  _70
REMARK   28  A    between atoms: _70  and  _71
REMARK   29  A    between atoms: _70  and  _73
REMARK   30  A    between atoms: _73  and  _74
REMARK   31  A    between atoms: _75  and  ZN_298
REMARK   32  A    between atoms: _79  and  _81
REMARK   33  A    between atoms: _81  and  _82
REMARK   34  A    between atoms: _85  and  _87
REMARK   35  A    between atoms: _96  and  _97
REMARK   36  A    between atoms: _105  and  _107
REMARK   37  A    between atoms: _107  and  _108
REMARK   38  A    between atoms: _107  and  _110
REMARK   39  A    between atoms: _110  and  _111
REMARK   40  A    between atoms: _114  and  _116
REMARK   41  A    between atoms: _116  and  _117
REMARK   42  A    between atoms: _116  and  _119
REMARK   43  A    between atoms: _119  and  _120
REMARK   44  A    between atoms: _126  and  _128
REMARK   45  A    between atoms: _128  and  _129
REMARK   46  A    between atoms: _128  and  _131
REMARK   47  A    between atoms: _131  and  _132
REMARK   48  A    between atoms: _135  and  _137
REMARK   49  A    between atoms: _137  and  _138
REMARK   50  A    between atoms: _137  and  _140
REMARK   51  A    between atoms: _140  and  _141
REMARK   52  A    between atoms: _145  and  ZN_298
REMARK   53  A    between atoms: _146  and  _148
REMARK   54  A    between atoms: _148  and  _149
REMARK   55  A    between atoms: _148  and  _151
REMARK   56  A    between atoms: _151  and  _152
REMARK   57  A    between atoms: _155  and  _157
REMARK   58  A    between atoms: _157  and  _158
REMARK   59  A    between atoms: _157  and  _160
REMARK   60  A    between atoms: _160  and  _161
REMARK   61  A    between atoms: _164  and  _166
REMARK   62  A    between atoms: _166  and  _167
REMARK   63  A    between atoms: _166  and  _169
REMARK   64  A    between atoms: _169  and  _170
REMARK   65  A    between atoms: _172  and  _174
REMARK   66  A    between atoms: _174  and  _175
REMARK   67  A    between atoms: _174  and  _177
REMARK   68  A    between atoms: _177  and  _178
REMARK   69  A    between atoms: _181  and  _183
REMARK   70  A    between atoms: _183  and  _184
REMARK   71  A    between atoms: _183  and  _186
REMARK   72  A    between atoms: _186  and  _187
REMARK   73  A    between atoms: _189  and  _191
REMARK   74  A    between atoms: _191  and  _192
REMARK   75  A    between atoms: _196  and  _197
REMARK   76  A    between atoms: _202  and  _204
REMARK   77  A    between atoms: _204  and  _205
REMARK   78  A    between atoms: _207  and  _209
REMARK   79  A    between atoms: _209  and  _210
REMARK   80  A    between atoms: _209  and  _212
REMARK   81  A    between atoms: _212  and  _213
REMARK   82  A    between atoms: _218  and  _219
REMARK   83  A    between atoms: _221  and  _223
REMARK   84  A    between atoms: _223  and  _224
REMARK   85  A    between atoms: _223  and  _226
REMARK   86  A    between atoms: _226  and  _227
REMARK   87  A    between atoms: _232  and  _233
REMARK   88  A    between atoms: _236  and  _237
REMARK   89  A    between atoms: _242  and  _244
REMARK   90  A    between atoms: _244  and  _245
REMARK   91  A    between atoms: _244  and  _247
REMARK   92  A    between atoms: _247  and  _248
REMARK   93  A    between atoms: _252  and  ZN_299
REMARK   94  A    between atoms: _253  and  _255
REMARK   95  A    between atoms: _255  and  _256
REMARK   96  A    between atoms: _259  and  _261
REMARK   97  A    between atoms: _261  and  _262
REMARK   98  A    between atoms: _261  and  _264
REMARK   99  A    between atoms: _264  and  _265
REMARK  100  A    between atoms: _270  and  _271
REMARK  101  A    between atoms: _273  and  _275
REMARK  102  A    between atoms: _275  and  _276
REMARK  103  A    between atoms: _275  and  _278
REMARK  104  A    between atoms: _278  and  _279
REMARK  105  A    between atoms: _279  and  _280
REMARK  106  A    between atoms: _280  and  _281
REMARK  107  A    between atoms: _281  and  _282
REMARK  108  A    between atoms: _286  and  _288
REMARK  109  A    between atoms: _288  and  _289
REMARK  110  A    between atoms: _288  and  _291
REMARK  111  A    between atoms: _291  and  _292
REMARK  112  A    between atoms: _292  and  _293
REMARK                            x       y       z     vdW  Elec       q    Type
REMARK                         _______ _______ _______ _____ _____    ______ ____
ROOT
ATOM      1  O   HOH     1      16.774  23.907  26.208  0.00  0.00    +0.000 OA
ENDROOT
TORSDOF 0
REMARK  Name = ../refined-set-2016/2qdt/2qdt_pocket.pdb
REMARK  112 active torsions:
REMARK  status: ('A' for Active; 'I' for Inactive)
REMARK    1  A    between atoms: _1  and  _3
REMARK    2  A    between atoms: _3  and  _4
REMARK    3  A    between atoms: _3  and  _6
REMARK    4  A    between atoms: _6  and  _7
REMARK    5  A    between atoms: _12  and  _13
REMARK    6  A    between atoms: _15  and  _17
REMARK    7  A    between atoms: _17  and  _18
REMARK    8  A    between atoms: _17  and  _20
REMARK    9  A    between atoms: _23  and  _25
REMARK   10  A    between atoms: _25  and  _26
REMARK   11  A    between atoms: _25  and  _28
REMARK   12  A    between atoms: _28  and  _29
REMARK   13  A    between atoms: _39  and  _41
REMARK   14  A    between atoms: _41  and  _42
REMARK   15  A    between atoms: _41  and  _44
REMARK   16  A    between atoms: _44  and  _45
REMARK   17  A    between atoms: _48  and  _50
REMARK   18  A    between atoms: _50  and  _51
REMARK   19  A    between atoms: _50  and  _53
REMARK   20  A    between atoms: _53  and  _54
REMARK   21  A    between atoms: _54  and  _55
REMARK   22  A    between atoms: _57  and  _59
REMARK   23  A    between atoms: _59  and  _60
REMARK   24  A    between atoms: _59  and  _62
REMARK   25  A    between atoms: _62  and  _63
REMARK   26  A    between atoms: _67  and  ZN_298
REMARK   27  A    between atoms: _68  and  _70
REMARK   28  A    between atoms: _70  and  _71
REMARK   29  A    between atoms: _70  and  _73
REMARK   30  A    between atoms: _73  and  _74
REMARK   31  A    between atoms: _75  and  ZN_298
REMARK   32  A    between atoms: _79  and  _81
REMARK   33  A    between atoms: _81  and  _82
REMARK   34  A    between atoms: _85  and  _87
REMARK   35  A    between atoms: _96  and  _97
REMARK   36  A    between atoms: _105  and  _107
REMARK   37  A    between atoms: _107  and  _108
REMARK   38  A    between atoms: _107  and  _110
REMARK   39  A    between atoms: _110  and  _111
REMARK   40  A    between atoms: _114  and  _116
REMARK   41  A    between atoms: _116  and  _117
REMARK   42  A    between atoms: _116  and  _119
REMARK   43  A    between atoms: _119  and  _120
REMARK   44  A    between atoms: _126  and  _128
REMARK   45  A    between atoms: _128  and  _129
REMARK   46  A    between atoms: _128  and  _131
REMARK   47  A    between atoms: _131  and  _132
REMARK   48  A    between atoms: _135  and  _137
REMARK   49  A    between atoms: _137  and  _138
REMARK   50  A    between atoms: _137  and  _140
REMARK   51  A    between atoms: _140  and  _141
REMARK   52  A    between atoms: _145  and  ZN_298
REMARK   53  A    between atoms: _146  and  _148
REMARK   54  A    between atoms: _148  and  _149
REMARK   55  A    between atoms: _148  and  _151
REMARK   56  A    between atoms: _151  and  _152
REMARK   57  A    between atoms: _155  and  _157
REMARK   58  A    between atoms: _157  and  _158
REMARK   59  A    between atoms: _157  and  _160
REMARK   60  A    between atoms: _160  and  _161
REMARK   61  A    between atoms: _164  and  _166
REMARK   62  A    between atoms: _166  and  _167
REMARK   63  A    between atoms: _166  and  _169
REMARK   64  A    between atoms: _169  and  _170
REMARK   65  A    between atoms: _172  and  _174
REMARK   66  A    between atoms: _174  and  _175
REMARK   67  A    between atoms: _174  and  _177
REMARK   68  A    between atoms: _177  and  _178
REMARK   69  A    between atoms: _181  and  _183
REMARK   70  A    between atoms: _183  and  _184
REMARK   71  A    between atoms: _183  and  _186
REMARK   72  A    between atoms: _186  and  _187
REMARK   73  A    between atoms: _189  and  _191
REMARK   74  A    between atoms: _191  and  _192
REMARK   75  A    between atoms: _196  and  _197
REMARK   76  A    between atoms: _202  and  _204
REMARK   77  A    between atoms: _204  and  _205
REMARK   78  A    between atoms: _207  and  _209
REMARK   79  A    between atoms: _209  and  _210
REMARK   80  A    between atoms: _209  and  _212
REMARK   81  A    between atoms: _212  and  _213
REMARK   82  A    between atoms: _218  and  _219
REMARK   83  A    between atoms: _221  and  _223
REMARK   84  A    between atoms: _223  and  _224
REMARK   85  A    between atoms: _223  and  _226
REMARK   86  A    between atoms: _226  and  _227
REMARK   87  A    between atoms: _232  and  _233
REMARK   88  A    between atoms: _236  and  _237
REMARK   89  A    between atoms: _242  and  _244
REMARK   90  A    between atoms: _244  and  _245
REMARK   91  A    between atoms: _244  and  _247
REMARK   92  A    between atoms: _247  and  _248
REMARK   93  A    between atoms: _252  and  ZN_299
REMARK   94  A    between atoms: _253  and  _255
REMARK   95  A    between atoms: _255  and  _256
REMARK   96  A    between atoms: _259  and  _261
REMARK   97  A    between atoms: _261  and  _262
REMARK   98  A    between atoms: _261  and  _264
REMARK   99  A    between atoms: _264  and  _265
REMARK  100  A    between atoms: _270  and  _271
REMARK  101  A    between atoms: _273  and  _275
REMARK  102  A    between atoms: _275  and  _276
REMARK  103  A    between atoms: _275  and  _278
REMARK  104  A    between atoms: _278  and  _279
REMARK  105  A    between atoms: _279  and  _280
REMARK  106  A    between atoms: _280  and  _281
REMARK  107  A    between atoms: _281  and  _282
REMARK  108  A    between atoms: _286  and  _288
REMARK  109  A    between atoms: _288  and  _289
REMARK  110  A    between atoms: _288  and  _291
REMARK  111  A    between atoms: _291  and  _292
REMARK  112  A    between atoms: _292  and  _293
REMARK                            x       y       z     vdW  Elec       q    Type
REMARK                         _______ _______ _______ _____ _____    ______ ____
ROOT
ATOM      1  O   HOH     1      11.461  26.655  28.599  0.00  0.00    +0.000 OA
ENDROOT
TORSDOF 0
REMARK  Name = ../refined-set-2016/2qdt/2qdt_pocket.pdb
REMARK  112 active torsions:
REMARK  status: ('A' for Active; 'I' for Inactive)
REMARK    1  A    between atoms: _1  and  _3
REMARK    2  A    between atoms: _3  and  _4
REMARK    3  A    between atoms: _3  and  _6
REMARK    4  A    between atoms: _6  and  _7
REMARK    5  A    between atoms: _12  and  _13
REMARK    6  A    between atoms: _15  and  _17
REMARK    7  A    between atoms: _17  and  _18
REMARK    8  A    between atoms: _17  and  _20
REMARK    9  A    between atoms: _23  and  _25
REMARK   10  A    between atoms: _25  and  _26
REMARK   11  A    between atoms: _25  and  _28
REMARK   12  A    between atoms: _28  and  _29
REMARK   13  A    between atoms: _39  and  _41
REMARK   14  A    between atoms: _41  and  _42
REMARK   15  A    between atoms: _41  and  _44
REMARK   16  A    between atoms: _44  and  _45
REMARK   17  A    between atoms: _48  and  _50
REMARK   18  A    between atoms: _50  and  _51
REMARK   19  A    between atoms: _50  and  _53
REMARK   20  A    between atoms: _53  and  _54
REMARK   21  A    between atoms: _54  and  _55
REMARK   22  A    between atoms: _57  and  _59
REMARK   23  A    between atoms: _59  and  _60
REMARK   24  A    between atoms: _59  and  _62
REMARK   25  A    between atoms: _62  and  _63
REMARK   26  A    between atoms: _67  and  ZN_298
REMARK   27  A    between atoms: _68  and  _70
REMARK   28  A    between atoms: _70  and  _71
REMARK   29  A    between atoms: _70  and  _73
REMARK   30  A    between atoms: _73  and  _74
REMARK   31  A    between atoms: _75  and  ZN_298
REMARK   32  A    between atoms: _79  and  _81
REMARK   33  A    between atoms: _81  and  _82
REMARK   34  A    between atoms: _85  and  _87
REMARK   35  A    between atoms: _96  and  _97
REMARK   36  A    between atoms: _105  and  _107
REMARK   37  A    between atoms: _107  and  _108
REMARK   38  A    between atoms: _107  and  _110
REMARK   39  A    between atoms: _110  and  _111
REMARK   40  A    between atoms: _114  and  _116
REMARK   41  A    between atoms: _116  and  _117
REMARK   42  A    between atoms: _116  and  _119
REMARK   43  A    between atoms: _119  and  _120
REMARK   44  A    between atoms: _126  and  _128
REMARK   45  A    between atoms: _128  and  _129
REMARK   46  A    between atoms: _128  and  _131
REMARK   47  A    between atoms: _131  and  _132
REMARK   48  A    between atoms: _135  and  _137
REMARK   49  A    between atoms: _137  and  _138
REMARK   50  A    between atoms: _137  and  _140
REMARK   51  A    between atoms: _140  and  _141
REMARK   52  A    between atoms: _145  and  ZN_298
REMARK   53  A    between atoms: _146  and  _148
REMARK   54  A    between atoms: _148  and  _149
REMARK   55  A    between atoms: _148  and  _151
REMARK   56  A    between atoms: _151  and  _152
REMARK   57  A    between atoms: _155  and  _157
REMARK   58  A    between atoms: _157  and  _158
REMARK   59  A    between atoms: _157  and  _160
REMARK   60  A    between atoms: _160  and  _161
REMARK   61  A    between atoms: _164  and  _166
REMARK   62  A    between atoms: _166  and  _167
REMARK   63  A    between atoms: _166  and  _169
REMARK   64  A    between atoms: _169  and  _170
REMARK   65  A    between atoms: _172  and  _174
REMARK   66  A    between atoms: _174  and  _175
REMARK   67  A    between atoms: _174  and  _177
REMARK   68  A    between atoms: _177  and  _178
REMARK   69  A    between atoms: _181  and  _183
REMARK   70  A    between atoms: _183  and  _184
REMARK   71  A    between atoms: _183  and  _186
REMARK   72  A    between atoms: _186  and  _187
REMARK   73  A    between atoms: _189  and  _191
REMARK   74  A    between atoms: _191  and  _192
REMARK   75  A    between atoms: _196  and  _197
REMARK   76  A    between atoms: _202  and  _204
REMARK   77  A    between atoms: _204  and  _205
REMARK   78  A    between atoms: _207  and  _209
REMARK   79  A    between atoms: _209  and  _210
REMARK   80  A    between atoms: _209  and  _212
REMARK   81  A    between atoms: _212  and  _213
REMARK   82  A    between atoms: _218  and  _219
REMARK   83  A    between atoms: _221  and  _223
REMARK   84  A    between atoms: _223  and  _224
REMARK   85  A    between atoms: _223  and  _226
REMARK   86  A    between atoms: _226  and  _227
REMARK   87  A    between atoms: _232  and  _233
REMARK   88  A    between atoms: _236  and  _237
REMARK   89  A    between atoms: _242  and  _244
REMARK   90  A    between atoms: _244  and  _245
REMARK   91  A    between atoms: _244  and  _247
REMARK   92  A    between atoms: _247  and  _248
REMARK   93  A    between atoms: _252  and  ZN_299
REMARK   94  A    between atoms: _253  and  _255
REMARK   95  A    between atoms: _255  and  _256
REMARK   96  A    between atoms: _259  and  _261
REMARK   97  A    between atoms: _261  and  _262
REMARK   98  A    between atoms: _261  and  _264
REMARK   99  A    between atoms: _264  and  _265
REMARK  100  A    between atoms: _270  and  _271
REMARK  101  A    between atoms: _273  and  _275
REMARK  102  A    between atoms: _275  and  _276
REMARK  103  A    between atoms: _275  and  _278
REMARK  104  A    between atoms: _278  and  _279
REMARK  105  A    between atoms: _279  and  _280
REMARK  106  A    between atoms: _280  and  _281
REMARK  107  A    between atoms: _281  and  _282
REMARK  108  A    between atoms: _286  and  _288
REMARK  109  A    between atoms: _288  and  _289
REMARK  110  A    between atoms: _288  and  _291
REMARK  111  A    between atoms: _291  and  _292
REMARK  112  A    between atoms: _292  and  _293
REMARK                            x       y       z     vdW  Elec       q    Type
REMARK                         _______ _______ _______ _____ _____    ______ ____
ROOT
ATOM      1  O   HOH     1      12.207  24.842  35.292  0.00  0.00    +0.000 OA
ENDROOT
TORSDOF 0
REMARK  Name = ../refined-set-2016/2qdt/2qdt_pocket.pdb
REMARK  112 active torsions:
REMARK  status: ('A' for Active; 'I' for Inactive)
REMARK    1  A    between atoms: _1  and  _3
REMARK    2  A    between atoms: _3  and  _4
REMARK    3  A    between atoms: _3  and  _6
REMARK    4  A    between atoms: _6  and  _7
REMARK    5  A    between atoms: _12  and  _13
REMARK    6  A    between atoms: _15  and  _17
REMARK    7  A    between atoms: _17  and  _18
REMARK    8  A    between atoms: _17  and  _20
REMARK    9  A    between atoms: _23  and  _25
REMARK   10  A    between atoms: _25  and  _26
REMARK   11  A    between atoms: _25  and  _28
REMARK   12  A    between atoms: _28  and  _29
REMARK   13  A    between atoms: _39  and  _41
REMARK   14  A    between atoms: _41  and  _42
REMARK   15  A    between atoms: _41  and  _44
REMARK   16  A    between atoms: _44  and  _45
REMARK   17  A    between atoms: _48  and  _50
REMARK   18  A    between atoms: _50  and  _51
REMARK   19  A    between atoms: _50  and  _53
REMARK   20  A    between atoms: _53  and  _54
REMARK   21  A    between atoms: _54  and  _55
REMARK   22  A    between atoms: _57  and  _59
REMARK   23  A    between atoms: _59  and  _60
REMARK   24  A    between atoms: _59  and  _62
REMARK   25  A    between atoms: _62  and  _63
REMARK   26  A    between atoms: _67  and  ZN_298
REMARK   27  A    between atoms: _68  and  _70
REMARK   28  A    between atoms: _70  and  _71
REMARK   29  A    between atoms: _70  and  _73
REMARK   30  A    between atoms: _73  and  _74
REMARK   31  A    between atoms: _75  and  ZN_298
REMARK   32  A    between atoms: _79  and  _81
REMARK   33  A    between atoms: _81  and  _82
REMARK   34  A    between atoms: _85  and  _87
REMARK   35  A    between atoms: _96  and  _97
REMARK   36  A    between atoms: _105  and  _107
REMARK   37  A    between atoms: _107  and  _108
REMARK   38  A    between atoms: _107  and  _110
REMARK   39  A    between atoms: _110  and  _111
REMARK   40  A    between atoms: _114  and  _116
REMARK   41  A    between atoms: _116  and  _117
REMARK   42  A    between atoms: _116  and  _119
REMARK   43  A    between atoms: _119  and  _120
REMARK   44  A    between atoms: _126  and  _128
REMARK   45  A    between atoms: _128  and  _129
REMARK   46  A    between atoms: _128  and  _131
REMARK   47  A    between atoms: _131  and  _132
REMARK   48  A    between atoms: _135  and  _137
REMARK   49  A    between atoms: _137  and  _138
REMARK   50  A    between atoms: _137  and  _140
REMARK   51  A    between atoms: _140  and  _141
REMARK   52  A    between atoms: _145  and  ZN_298
REMARK   53  A    between atoms: _146  and  _148
REMARK   54  A    between atoms: _148  and  _149
REMARK   55  A    between atoms: _148  and  _151
REMARK   56  A    between atoms: _151  and  _152
REMARK   57  A    between atoms: _155  and  _157
REMARK   58  A    between atoms: _157  and  _158
REMARK   59  A    between atoms: _157  and  _160
REMARK   60  A    between atoms: _160  and  _161
REMARK   61  A    between atoms: _164  and  _166
REMARK   62  A    between atoms: _166  and  _167
REMARK   63  A    between atoms: _166  and  _169
REMARK   64  A    between atoms: _169  and  _170
REMARK   65  A    between atoms: _172  and  _174
REMARK   66  A    between atoms: _174  and  _175
REMARK   67  A    between atoms: _174  and  _177
REMARK   68  A    between atoms: _177  and  _178
REMARK   69  A    between atoms: _181  and  _183
REMARK   70  A    between atoms: _183  and  _184
REMARK   71  A    between atoms: _183  and  _186
REMARK   72  A    between atoms: _186  and  _187
REMARK   73  A    between atoms: _189  and  _191
REMARK   74  A    between atoms: _191  and  _192
REMARK   75  A    between atoms: _196  and  _197
REMARK   76  A    between atoms: _202  and  _204
REMARK   77  A    between atoms: _204  and  _205
REMARK   78  A    between atoms: _207  and  _209
REMARK   79  A    between atoms: _209  and  _210
REMARK   80  A    between atoms: _209  and  _212
REMARK   81  A    between atoms: _212  and  _213
REMARK   82  A    between atoms: _218  and  _219
REMARK   83  A    between atoms: _221  and  _223
REMARK   84  A    between atoms: _223  and  _224
REMARK   85  A    between atoms: _223  and  _226
REMARK   86  A    between atoms: _226  and  _227
REMARK   87  A    between atoms: _232  and  _233
REMARK   88  A    between atoms: _236  and  _237
REMARK   89  A    between atoms: _242  and  _244
REMARK   90  A    between atoms: _244  and  _245
REMARK   91  A    between atoms: _244  and  _247
REMARK   92  A    between atoms: _247  and  _248
REMARK   93  A    between atoms: _252  and  ZN_299
REMARK   94  A    between atoms: _253  and  _255
REMARK   95  A    between atoms: _255  and  _256
REMARK   96  A    between atoms: _259  and  _261
REMARK   97  A    between atoms: _261  and  _262
REMARK   98  A    between atoms: _261  and  _264
REMARK   99  A    between atoms: _264  and  _265
REMARK  100  A    between atoms: _270  and  _271
REMARK  101  A    between atoms: _273  and  _275
REMARK  102  A    between atoms: _275  and  _276
REMARK  103  A    between atoms: _275  and  _278
REMARK  104  A    between atoms: _278  and  _279
REMARK  105  A    between atoms: _279  and  _280
REMARK  106  A    between atoms: _280  and  _281
REMARK  107  A    between atoms: _281  and  _282
REMARK  108  A    between atoms: _286  and  _288
REMARK  109  A    between atoms: _288  and  _289
REMARK  110  A    between atoms: _288  and  _291
REMARK  111  A    between atoms: _291  and  _292
REMARK  112  A    between atoms: _292  and  _293
REMARK                            x       y       z     vdW  Elec       q    Type
REMARK                         _______ _______ _______ _____ _____    ______ ____
ROOT
ATOM      1  O   HOH     1       8.765  34.559  36.405  0.00  0.00    +0.000 OA
ENDROOT
TORSDOF 0
REMARK  Name = ../refined-set-2016/2qdt/2qdt_pocket.pdb
REMARK  112 active torsions:
REMARK  status: ('A' for Active; 'I' for Inactive)
REMARK    1  A    between atoms: _1  and  _3
REMARK    2  A    between atoms: _3  and  _4
REMARK    3  A    between atoms: _3  and  _6
REMARK    4  A    between atoms: _6  and  _7
REMARK    5  A    between atoms: _12  and  _13
REMARK    6  A    between atoms: _15  and  _17
REMARK    7  A    between atoms: _17  and  _18
REMARK    8  A    between atoms: _17  and  _20
REMARK    9  A    between atoms: _23  and  _25
REMARK   10  A    between atoms: _25  and  _26
REMARK   11  A    between atoms: _25  and  _28
REMARK   12  A    between atoms: _28  and  _29
REMARK   13  A    between atoms: _39  and  _41
REMARK   14  A    between atoms: _41  and  _42
REMARK   15  A    between atoms: _41  and  _44
REMARK   16  A    between atoms: _44  and  _45
REMARK   17  A    between atoms: _48  and  _50
REMARK   18  A    between atoms: _50  and  _51
REMARK   19  A    between atoms: _50  and  _53
REMARK   20  A    between atoms: _53  and  _54
REMARK   21  A    between atoms: _54  and  _55
REMARK   22  A    between atoms: _57  and  _59
REMARK   23  A    between atoms: _59  and  _60
REMARK   24  A    between atoms: _59  and  _62
REMARK   25  A    between atoms: _62  and  _63
REMARK   26  A    between atoms: _67  and  ZN_298
REMARK   27  A    between atoms: _68  and  _70
REMARK   28  A    between atoms: _70  and  _71
REMARK   29  A    between atoms: _70  and  _73
REMARK   30  A    between atoms: _73  and  _74
REMARK   31  A    between atoms: _75  and  ZN_298
REMARK   32  A    between atoms: _79  and  _81
REMARK   33  A    between atoms: _81  and  _82
REMARK   34  A    between atoms: _85  and  _87
REMARK   35  A    between atoms: _96  and  _97
REMARK   36  A    between atoms: _105  and  _107
REMARK   37  A    between atoms: _107  and  _108
REMARK   38  A    between atoms: _107  and  _110
REMARK   39  A    between atoms: _110  and  _111
REMARK   40  A    between atoms: _114  and  _116
REMARK   41  A    between atoms: _116  and  _117
REMARK   42  A    between atoms: _116  and  _119
REMARK   43  A    between atoms: _119  and  _120
REMARK   44  A    between atoms: _126  and  _128
REMARK   45  A    between atoms: _128  and  _129
REMARK   46  A    between atoms: _128  and  _131
REMARK   47  A    between atoms: _131  and  _132
REMARK   48  A    between atoms: _135  and  _137
REMARK   49  A    between atoms: _137  and  _138
REMARK   50  A    between atoms: _137  and  _140
REMARK   51  A    between atoms: _140  and  _141
REMARK   52  A    between atoms: _145  and  ZN_298
REMARK   53  A    between atoms: _146  and  _148
REMARK   54  A    between atoms: _148  and  _149
REMARK   55  A    between atoms: _148  and  _151
REMARK   56  A    between atoms: _151  and  _152
REMARK   57  A    between atoms: _155  and  _157
REMARK   58  A    between atoms: _157  and  _158
REMARK   59  A    between atoms: _157  and  _160
REMARK   60  A    between atoms: _160  and  _161
REMARK   61  A    between atoms: _164  and  _166
REMARK   62  A    between atoms: _166  and  _167
REMARK   63  A    between atoms: _166  and  _169
REMARK   64  A    between atoms: _169  and  _170
REMARK   65  A    between atoms: _172  and  _174
REMARK   66  A    between atoms: _174  and  _175
REMARK   67  A    between atoms: _174  and  _177
REMARK   68  A    between atoms: _177  and  _178
REMARK   69  A    between atoms: _181  and  _183
REMARK   70  A    between atoms: _183  and  _184
REMARK   71  A    between atoms: _183  and  _186
REMARK   72  A    between atoms: _186  and  _187
REMARK   73  A    between atoms: _189  and  _191
REMARK   74  A    between atoms: _191  and  _192
REMARK   75  A    between atoms: _196  and  _197
REMARK   76  A    between atoms: _202  and  _204
REMARK   77  A    between atoms: _204  and  _205
REMARK   78  A    between atoms: _207  and  _209
REMARK   79  A    between atoms: _209  and  _210
REMARK   80  A    between atoms: _209  and  _212
REMARK   81  A    between atoms: _212  and  _213
REMARK   82  A    between atoms: _218  and  _219
REMARK   83  A    between atoms: _221  and  _223
REMARK   84  A    between atoms: _223  and  _224
REMARK   85  A    between atoms: _223  and  _226
REMARK   86  A    between atoms: _226  and  _227
REMARK   87  A    between atoms: _232  and  _233
REMARK   88  A    between atoms: _236  and  _237
REMARK   89  A    between atoms: _242  and  _244
REMARK   90  A    between atoms: _244  and  _245
REMARK   91  A    between atoms: _244  and  _247
REMARK   92  A    between atoms: _247  and  _248
REMARK   93  A    between atoms: _252  and  ZN_299
REMARK   94  A    between atoms: _253  and  _255
REMARK   95  A    between atoms: _255  and  _256
REMARK   96  A    between atoms: _259  and  _261
REMARK   97  A    between atoms: _261  and  _262
REMARK   98  A    between atoms: _261  and  _264
REMARK   99  A    between atoms: _264  and  _265
REMARK  100  A    between atoms: _270  and  _271
REMARK  101  A    between atoms: _273  and  _275
REMARK  102  A    between atoms: _275  and  _276
REMARK  103  A    between atoms: _275  and  _278
REMARK  104  A    between atoms: _278  and  _279
REMARK  105  A    between atoms: _279  and  _280
REMARK  106  A    between atoms: _280  and  _281
REMARK  107  A    between atoms: _281  and  _282
REMARK  108  A    between atoms: _286  and  _288
REMARK  109  A    between atoms: _288  and  _289
REMARK  110  A    between atoms: _288  and  _291
REMARK  111  A    between atoms: _291  and  _292
REMARK  112  A    between atoms: _292  and  _293
REMARK                            x       y       z     vdW  Elec       q    Type
REMARK                         _______ _______ _______ _____ _____    ______ ____
ROOT
ATOM      1  O   HOH     1      20.303  31.988  31.676  0.00  0.00    +0.000 OA
ENDROOT
TORSDOF 0
REMARK  Name = ../refined-set-2016/2qdt/2qdt_pocket.pdb
REMARK  112 active torsions:
REMARK  status: ('A' for Active; 'I' for Inactive)
REMARK    1  A    between atoms: _1  and  _3
REMARK    2  A    between atoms: _3  and  _4
REMARK    3  A    between atoms: _3  and  _6
REMARK    4  A    between atoms: _6  and  _7
REMARK    5  A    between atoms: _12  and  _13
REMARK    6  A    between atoms: _15  and  _17
REMARK    7  A    between atoms: _17  and  _18
REMARK    8  A    between atoms: _17  and  _20
REMARK    9  A    between atoms: _23  and  _25
REMARK   10  A    between atoms: _25  and  _26
REMARK   11  A    between atoms: _25  and  _28
REMARK   12  A    between atoms: _28  and  _29
REMARK   13  A    between atoms: _39  and  _41
REMARK   14  A    between atoms: _41  and  _42
REMARK   15  A    between atoms: _41  and  _44
REMARK   16  A    between atoms: _44  and  _45
REMARK   17  A    between atoms: _48  and  _50
REMARK   18  A    between atoms: _50  and  _51
REMARK   19  A    between atoms: _50  and  _53
REMARK   20  A    between atoms: _53  and  _54
REMARK   21  A    between atoms: _54  and  _55
REMARK   22  A    between atoms: _57  and  _59
REMARK   23  A    between atoms: _59  and  _60
REMARK   24  A    between atoms: _59  and  _62
REMARK   25  A    between atoms: _62  and  _63
REMARK   26  A    between atoms: _67  and  ZN_298
REMARK   27  A    between atoms: _68  and  _70
REMARK   28  A    between atoms: _70  and  _71
REMARK   29  A    between atoms: _70  and  _73
REMARK   30  A    between atoms: _73  and  _74
REMARK   31  A    between atoms: _75  and  ZN_298
REMARK   32  A    between atoms: _79  and  _81
REMARK   33  A    between atoms: _81  and  _82
REMARK   34  A    between atoms: _85  and  _87
REMARK   35  A    between atoms: _96  and  _97
REMARK   36  A    between atoms: _105  and  _107
REMARK   37  A    between atoms: _107  and  _108
REMARK   38  A    between atoms: _107  and  _110
REMARK   39  A    between atoms: _110  and  _111
REMARK   40  A    between atoms: _114  and  _116
REMARK   41  A    between atoms: _116  and  _117
REMARK   42  A    between atoms: _116  and  _119
REMARK   43  A    between atoms: _119  and  _120
REMARK   44  A    between atoms: _126  and  _128
REMARK   45  A    between atoms: _128  and  _129
REMARK   46  A    between atoms: _128  and  _131
REMARK   47  A    between atoms: _131  and  _132
REMARK   48  A    between atoms: _135  and  _137
REMARK   49  A    between atoms: _137  and  _138
REMARK   50  A    between atoms: _137  and  _140
REMARK   51  A    between atoms: _140  and  _141
REMARK   52  A    between atoms: _145  and  ZN_298
REMARK   53  A    between atoms: _146  and  _148
REMARK   54  A    between atoms: _148  and  _149
REMARK   55  A    between atoms: _148  and  _151
REMARK   56  A    between atoms: _151  and  _152
REMARK   57  A    between atoms: _155  and  _157
REMARK   58  A    between atoms: _157  and  _158
REMARK   59  A    between atoms: _157  and  _160
REMARK   60  A    between atoms: _160  and  _161
REMARK   61  A    between atoms: _164  and  _166
REMARK   62  A    between atoms: _166  and  _167
REMARK   63  A    between atoms: _166  and  _169
REMARK   64  A    between atoms: _169  and  _170
REMARK   65  A    between atoms: _172  and  _174
REMARK   66  A    between atoms: _174  and  _175
REMARK   67  A    between atoms: _174  and  _177
REMARK   68  A    between atoms: _177  and  _178
REMARK   69  A    between atoms: _181  and  _183
REMARK   70  A    between atoms: _183  and  _184
REMARK   71  A    between atoms: _183  and  _186
REMARK   72  A    between atoms: _186  and  _187
REMARK   73  A    between atoms: _189  and  _191
REMARK   74  A    between atoms: _191  and  _192
REMARK   75  A    between atoms: _196  and  _197
REMARK   76  A    between atoms: _202  and  _204
REMARK   77  A    between atoms: _204  and  _205
REMARK   78  A    between atoms: _207  and  _209
REMARK   79  A    between atoms: _209  and  _210
REMARK   80  A    between atoms: _209  and  _212
REMARK   81  A    between atoms: _212  and  _213
REMARK   82  A    between atoms: _218  and  _219
REMARK   83  A    between atoms: _221  and  _223
REMARK   84  A    between atoms: _223  and  _224
REMARK   85  A    between atoms: _223  and  _226
REMARK   86  A    between atoms: _226  and  _227
REMARK   87  A    between atoms: _232  and  _233
REMARK   88  A    between atoms: _236  and  _237
REMARK   89  A    between atoms: _242  and  _244
REMARK   90  A    between atoms: _244  and  _245
REMARK   91  A    between atoms: _244  and  _247
REMARK   92  A    between atoms: _247  and  _248
REMARK   93  A    between atoms: _252  and  ZN_299
REMARK   94  A    between atoms: _253  and  _255
REMARK   95  A    between atoms: _255  and  _256
REMARK   96  A    between atoms: _259  and  _261
REMARK   97  A    between atoms: _261  and  _262
REMARK   98  A    between atoms: _261  and  _264
REMARK   99  A    between atoms: _264  and  _265
REMARK  100  A    between atoms: _270  and  _271
REMARK  101  A    between atoms: _273  and  _275
REMARK  102  A    between atoms: _275  and  _276
REMARK  103  A    between atoms: _275  and  _278
REMARK  104  A    between atoms: _278  and  _279
REMARK  105  A    between atoms: _279  and  _280
REMARK  106  A    between atoms: _280  and  _281
REMARK  107  A    between atoms: _281  and  _282
REMARK  108  A    between atoms: _286  and  _288
REMARK  109  A    between atoms: _288  and  _289
REMARK  110  A    between atoms: _288  and  _291
REMARK  111  A    between atoms: _291  and  _292
REMARK  112  A    between atoms: _292  and  _293
REMARK                            x       y       z     vdW  Elec       q    Type
REMARK                         _______ _______ _______ _____ _____    ______ ____
ROOT
ATOM      1  O   HOH     1      19.654  33.286  26.308  0.00  0.00    +0.000 OA
ENDROOT
TORSDOF 0
REMARK  Name = ../refined-set-2016/2qdt/2qdt_pocket.pdb
REMARK  112 active torsions:
REMARK  status: ('A' for Active; 'I' for Inactive)
REMARK    1  A    between atoms: _1  and  _3
REMARK    2  A    between atoms: _3  and  _4
REMARK    3  A    between atoms: _3  and  _6
REMARK    4  A    between atoms: _6  and  _7
REMARK    5  A    between atoms: _12  and  _13
REMARK    6  A    between atoms: _15  and  _17
REMARK    7  A    between atoms: _17  and  _18
REMARK    8  A    between atoms: _17  and  _20
REMARK    9  A    between atoms: _23  and  _25
REMARK   10  A    between atoms: _25  and  _26
REMARK   11  A    between atoms: _25  and  _28
REMARK   12  A    between atoms: _28  and  _29
REMARK   13  A    between atoms: _39  and  _41
REMARK   14  A    between atoms: _41  and  _42
REMARK   15  A    between atoms: _41  and  _44
REMARK   16  A    between atoms: _44  and  _45
REMARK   17  A    between atoms: _48  and  _50
REMARK   18  A    between atoms: _50  and  _51
REMARK   19  A    between atoms: _50  and  _53
REMARK   20  A    between atoms: _53  and  _54
REMARK   21  A    between atoms: _54  and  _55
REMARK   22  A    between atoms: _57  and  _59
REMARK   23  A    between atoms: _59  and  _60
REMARK   24  A    between atoms: _59  and  _62
REMARK   25  A    between atoms: _62  and  _63
REMARK   26  A    between atoms: _67  and  ZN_298
REMARK   27  A    between atoms: _68  and  _70
REMARK   28  A    between atoms: _70  and  _71
REMARK   29  A    between atoms: _70  and  _73
REMARK   30  A    between atoms: _73  and  _74
REMARK   31  A    between atoms: _75  and  ZN_298
REMARK   32  A    between atoms: _79  and  _81
REMARK   33  A    between atoms: _81  and  _82
REMARK   34  A    between atoms: _85  and  _87
REMARK   35  A    between atoms: _96  and  _97
REMARK   36  A    between atoms: _105  and  _107
REMARK   37  A    between atoms: _107  and  _108
REMARK   38  A    between atoms: _107  and  _110
REMARK   39  A    between atoms: _110  and  _111
REMARK   40  A    between atoms: _114  and  _116
REMARK   41  A    between atoms: _116  and  _117
REMARK   42  A    between atoms: _116  and  _119
REMARK   43  A    between atoms: _119  and  _120
REMARK   44  A    between atoms: _126  and  _128
REMARK   45  A    between atoms: _128  and  _129
REMARK   46  A    between atoms: _128  and  _131
REMARK   47  A    between atoms: _131  and  _132
REMARK   48  A    between atoms: _135  and  _137
REMARK   49  A    between atoms: _137  and  _138
REMARK   50  A    between atoms: _137  and  _140
REMARK   51  A    between atoms: _140  and  _141
REMARK   52  A    between atoms: _145  and  ZN_298
REMARK   53  A    between atoms: _146  and  _148
REMARK   54  A    between atoms: _148  and  _149
REMARK   55  A    between atoms: _148  and  _151
REMARK   56  A    between atoms: _151  and  _152
REMARK   57  A    between atoms: _155  and  _157
REMARK   58  A    between atoms: _157  and  _158
REMARK   59  A    between atoms: _157  and  _160
REMARK   60  A    between atoms: _160  and  _161
REMARK   61  A    between atoms: _164  and  _166
REMARK   62  A    between atoms: _166  and  _167
REMARK   63  A    between atoms: _166  and  _169
REMARK   64  A    between atoms: _169  and  _170
REMARK   65  A    between atoms: _172  and  _174
REMARK   66  A    between atoms: _174  and  _175
REMARK   67  A    between atoms: _174  and  _177
REMARK   68  A    between atoms: _177  and  _178
REMARK   69  A    between atoms: _181  and  _183
REMARK   70  A    between atoms: _183  and  _184
REMARK   71  A    between atoms: _183  and  _186
REMARK   72  A    between atoms: _186  and  _187
REMARK   73  A    between atoms: _189  and  _191
REMARK   74  A    between atoms: _191  and  _192
REMARK   75  A    between atoms: _196  and  _197
REMARK   76  A    between atoms: _202  and  _204
REMARK   77  A    between atoms: _204  and  _205
REMARK   78  A    between atoms: _207  and  _209
REMARK   79  A    between atoms: _209  and  _210
REMARK   80  A    between atoms: _209  and  _212
REMARK   81  A    between atoms: _212  and  _213
REMARK   82  A    between atoms: _218  and  _219
REMARK   83  A    between atoms: _221  and  _223
REMARK   84  A    between atoms: _223  and  _224
REMARK   85  A    between atoms: _223  and  _226
REMARK   86  A    between atoms: _226  and  _227
REMARK   87  A    between atoms: _232  and  _233
REMARK   88  A    between atoms: _236  and  _237
REMARK   89  A    between atoms: _242  and  _244
REMARK   90  A    between atoms: _244  and  _245
REMARK   91  A    between atoms: _244  and  _247
REMARK   92  A    between atoms: _247  and  _248
REMARK   93  A    between atoms: _252  and  ZN_299
REMARK   94  A    between atoms: _253  and  _255
REMARK   95  A    between atoms: _255  and  _256
REMARK   96  A    between atoms: _259  and  _261
REMARK   97  A    between atoms: _261  and  _262
REMARK   98  A    between atoms: _261  and  _264
REMARK   99  A    between atoms: _264  and  _265
REMARK  100  A    between atoms: _270  and  _271
REMARK  101  A    between atoms: _273  and  _275
REMARK  102  A    between atoms: _275  and  _276
REMARK  103  A    between atoms: _275  and  _278
REMARK  104  A    between atoms: _278  and  _279
REMARK  105  A    between atoms: _279  and  _280
REMARK  106  A    between atoms: _280  and  _281
REMARK  107  A    between atoms: _281  and  _282
REMARK  108  A    between atoms: _286  and  _288
REMARK  109  A    between atoms: _288  and  _289
REMARK  110  A    between atoms: _288  and  _291
REMARK  111  A    between atoms: _291  and  _292
REMARK  112  A    between atoms: _292  and  _293
REMARK                            x       y       z     vdW  Elec       q    Type
REMARK                         _______ _______ _______ _____ _____    ______ ____
ROOT
ATOM      1  O   HOH     1      17.045  32.779  25.444  0.00  0.00    +0.000 OA
ENDROOT
TORSDOF 0
REMARK  Name = ../refined-set-2016/2qdt/2qdt_pocket.pdb
REMARK  112 active torsions:
REMARK  status: ('A' for Active; 'I' for Inactive)
REMARK    1  A    between atoms: _1  and  _3
REMARK    2  A    between atoms: _3  and  _4
REMARK    3  A    between atoms: _3  and  _6
REMARK    4  A    between atoms: _6  and  _7
REMARK    5  A    between atoms: _12  and  _13
REMARK    6  A    between atoms: _15  and  _17
REMARK    7  A    between atoms: _17  and  _18
REMARK    8  A    between atoms: _17  and  _20
REMARK    9  A    between atoms: _23  and  _25
REMARK   10  A    between atoms: _25  and  _26
REMARK   11  A    between atoms: _25  and  _28
REMARK   12  A    between atoms: _28  and  _29
REMARK   13  A    between atoms: _39  and  _41
REMARK   14  A    between atoms: _41  and  _42
REMARK   15  A    between atoms: _41  and  _44
REMARK   16  A    between atoms: _44  and  _45
REMARK   17  A    between atoms: _48  and  _50
REMARK   18  A    between atoms: _50  and  _51
REMARK   19  A    between atoms: _50  and  _53
REMARK   20  A    between atoms: _53  and  _54
REMARK   21  A    between atoms: _54  and  _55
REMARK   22  A    between atoms: _57  and  _59
REMARK   23  A    between atoms: _59  and  _60
REMARK   24  A    between atoms: _59  and  _62
REMARK   25  A    between atoms: _62  and  _63
REMARK   26  A    between atoms: _67  and  ZN_298
REMARK   27  A    between atoms: _68  and  _70
REMARK   28  A    between atoms: _70  and  _71
REMARK   29  A    between atoms: _70  and  _73
REMARK   30  A    between atoms: _73  and  _74
REMARK   31  A    between atoms: _75  and  ZN_298
REMARK   32  A    between atoms: _79  and  _81
REMARK   33  A    between atoms: _81  and  _82
REMARK   34  A    between atoms: _85  and  _87
REMARK   35  A    between atoms: _96  and  _97
REMARK   36  A    between atoms: _105  and  _107
REMARK   37  A    between atoms: _107  and  _108
REMARK   38  A    between atoms: _107  and  _110
REMARK   39  A    between atoms: _110  and  _111
REMARK   40  A    between atoms: _114  and  _116
REMARK   41  A    between atoms: _116  and  _117
REMARK   42  A    between atoms: _116  and  _119
REMARK   43  A    between atoms: _119  and  _120
REMARK   44  A    between atoms: _126  and  _128
REMARK   45  A    between atoms: _128  and  _129
REMARK   46  A    between atoms: _128  and  _131
REMARK   47  A    between atoms: _131  and  _132
REMARK   48  A    between atoms: _135  and  _137
REMARK   49  A    between atoms: _137  and  _138
REMARK   50  A    between atoms: _137  and  _140
REMARK   51  A    between atoms: _140  and  _141
REMARK   52  A    between atoms: _145  and  ZN_298
REMARK   53  A    between atoms: _146  and  _148
REMARK   54  A    between atoms: _148  and  _149
REMARK   55  A    between atoms: _148  and  _151
REMARK   56  A    between atoms: _151  and  _152
REMARK   57  A    between atoms: _155  and  _157
REMARK   58  A    between atoms: _157  and  _158
REMARK   59  A    between atoms: _157  and  _160
REMARK   60  A    between atoms: _160  and  _161
REMARK   61  A    between atoms: _164  and  _166
REMARK   62  A    between atoms: _166  and  _167
REMARK   63  A    between atoms: _166  and  _169
REMARK   64  A    between atoms: _169  and  _170
REMARK   65  A    between atoms: _172  and  _174
REMARK   66  A    between atoms: _174  and  _175
REMARK   67  A    between atoms: _174  and  _177
REMARK   68  A    between atoms: _177  and  _178
REMARK   69  A    between atoms: _181  and  _183
REMARK   70  A    between atoms: _183  and  _184
REMARK   71  A    between atoms: _183  and  _186
REMARK   72  A    between atoms: _186  and  _187
REMARK   73  A    between atoms: _189  and  _191
REMARK   74  A    between atoms: _191  and  _192
REMARK   75  A    between atoms: _196  and  _197
REMARK   76  A    between atoms: _202  and  _204
REMARK   77  A    between atoms: _204  and  _205
REMARK   78  A    between atoms: _207  and  _209
REMARK   79  A    between atoms: _209  and  _210
REMARK   80  A    between atoms: _209  and  _212
REMARK   81  A    between atoms: _212  and  _213
REMARK   82  A    between atoms: _218  and  _219
REMARK   83  A    between atoms: _221  and  _223
REMARK   84  A    between atoms: _223  and  _224
REMARK   85  A    between atoms: _223  and  _226
REMARK   86  A    between atoms: _226  and  _227
REMARK   87  A    between atoms: _232  and  _233
REMARK   88  A    between atoms: _236  and  _237
REMARK   89  A    between atoms: _242  and  _244
REMARK   90  A    between atoms: _244  and  _245
REMARK   91  A    between atoms: _244  and  _247
REMARK   92  A    between atoms: _247  and  _248
REMARK   93  A    between atoms: _252  and  ZN_299
REMARK   94  A    between atoms: _253  and  _255
REMARK   95  A    between atoms: _255  and  _256
REMARK   96  A    between atoms: _259  and  _261
REMARK   97  A    between atoms: _261  and  _262
REMARK   98  A    between atoms: _261  and  _264
REMARK   99  A    between atoms: _264  and  _265
REMARK  100  A    between atoms: _270  and  _271
REMARK  101  A    between atoms: _273  and  _275
REMARK  102  A    between atoms: _275  and  _276
REMARK  103  A    between atoms: _275  and  _278
REMARK  104  A    between atoms: _278  and  _279
REMARK  105  A    between atoms: _279  and  _280
REMARK  106  A    between atoms: _280  and  _281
REMARK  107  A    between atoms: _281  and  _282
REMARK  108  A    between atoms: _286  and  _288
REMARK  109  A    between atoms: _288  and  _289
REMARK  110  A    between atoms: _288  and  _291
REMARK  111  A    between atoms: _291  and  _292
REMARK  112  A    between atoms: _292  and  _293
REMARK                            x       y       z     vdW  Elec       q    Type
REMARK                         _______ _______ _______ _____ _____    ______ ____
ROOT
ATOM      1  O   HOH     1       7.376  25.179  28.769  0.00  0.00    +0.000 OA
ENDROOT
TORSDOF 0
REMARK  Name = ../refined-set-2016/2qdt/2qdt_pocket.pdb
REMARK  112 active torsions:
REMARK  status: ('A' for Active; 'I' for Inactive)
REMARK    1  A    between atoms: _1  and  _3
REMARK    2  A    between atoms: _3  and  _4
REMARK    3  A    between atoms: _3  and  _6
REMARK    4  A    between atoms: _6  and  _7
REMARK    5  A    between atoms: _12  and  _13
REMARK    6  A    between atoms: _15  and  _17
REMARK    7  A    between atoms: _17  and  _18
REMARK    8  A    between atoms: _17  and  _20
REMARK    9  A    between atoms: _23  and  _25
REMARK   10  A    between atoms: _25  and  _26
REMARK   11  A    between atoms: _25  and  _28
REMARK   12  A    between atoms: _28  and  _29
REMARK   13  A    between atoms: _39  and  _41
REMARK   14  A    between atoms: _41  and  _42
REMARK   15  A    between atoms: _41  and  _44
REMARK   16  A    between atoms: _44  and  _45
REMARK   17  A    between atoms: _48  and  _50
REMARK   18  A    between atoms: _50  and  _51
REMARK   19  A    between atoms: _50  and  _53
REMARK   20  A    between atoms: _53  and  _54
REMARK   21  A    between atoms: _54  and  _55
REMARK   22  A    between atoms: _57  and  _59
REMARK   23  A    between atoms: _59  and  _60
REMARK   24  A    between atoms: _59  and  _62
REMARK   25  A    between atoms: _62  and  _63
REMARK   26  A    between atoms: _67  and  ZN_298
REMARK   27  A    between atoms: _68  and  _70
REMARK   28  A    between atoms: _70  and  _71
REMARK   29  A    between atoms: _70  and  _73
REMARK   30  A    between atoms: _73  and  _74
REMARK   31  A    between atoms: _75  and  ZN_298
REMARK   32  A    between atoms: _79  and  _81
REMARK   33  A    between atoms: _81  and  _82
REMARK   34  A    between atoms: _85  and  _87
REMARK   35  A    between atoms: _96  and  _97
REMARK   36  A    between atoms: _105  and  _107
REMARK   37  A    between atoms: _107  and  _108
REMARK   38  A    between atoms: _107  and  _110
REMARK   39  A    between atoms: _110  and  _111
REMARK   40  A    between atoms: _114  and  _116
REMARK   41  A    between atoms: _116  and  _117
REMARK   42  A    between atoms: _116  and  _119
REMARK   43  A    between atoms: _119  and  _120
REMARK   44  A    between atoms: _126  and  _128
REMARK   45  A    between atoms: _128  and  _129
REMARK   46  A    between atoms: _128  and  _131
REMARK   47  A    between atoms: _131  and  _132
REMARK   48  A    between atoms: _135  and  _137
REMARK   49  A    between atoms: _137  and  _138
REMARK   50  A    between atoms: _137  and  _140
REMARK   51  A    between atoms: _140  and  _141
REMARK   52  A    between atoms: _145  and  ZN_298
REMARK   53  A    between atoms: _146  and  _148
REMARK   54  A    between atoms: _148  and  _149
REMARK   55  A    between atoms: _148  and  _151
REMARK   56  A    between atoms: _151  and  _152
REMARK   57  A    between atoms: _155  and  _157
REMARK   58  A    between atoms: _157  and  _158
REMARK   59  A    between atoms: _157  and  _160
REMARK   60  A    between atoms: _160  and  _161
REMARK   61  A    between atoms: _164  and  _166
REMARK   62  A    between atoms: _166  and  _167
REMARK   63  A    between atoms: _166  and  _169
REMARK   64  A    between atoms: _169  and  _170
REMARK   65  A    between atoms: _172  and  _174
REMARK   66  A    between atoms: _174  and  _175
REMARK   67  A    between atoms: _174  and  _177
REMARK   68  A    between atoms: _177  and  _178
REMARK   69  A    between atoms: _181  and  _183
REMARK   70  A    between atoms: _183  and  _184
REMARK   71  A    between atoms: _183  and  _186
REMARK   72  A    between atoms: _186  and  _187
REMARK   73  A    between atoms: _189  and  _191
REMARK   74  A    between atoms: _191  and  _192
REMARK   75  A    between atoms: _196  and  _197
REMARK   76  A    between atoms: _202  and  _204
REMARK   77  A    between atoms: _204  and  _205
REMARK   78  A    between atoms: _207  and  _209
REMARK   79  A    between atoms: _209  and  _210
REMARK   80  A    between atoms: _209  and  _212
REMARK   81  A    between atoms: _212  and  _213
REMARK   82  A    between atoms: _218  and  _219
REMARK   83  A    between atoms: _221  and  _223
REMARK   84  A    between atoms: _223  and  _224
REMARK   85  A    between atoms: _223  and  _226
REMARK   86  A    between atoms: _226  and  _227
REMARK   87  A    between atoms: _232  and  _233
REMARK   88  A    between atoms: _236  and  _237
REMARK   89  A    between atoms: _242  and  _244
REMARK   90  A    between atoms: _244  and  _245
REMARK   91  A    between atoms: _244  and  _247
REMARK   92  A    between atoms: _247  and  _248
REMARK   93  A    between atoms: _252  and  ZN_299
REMARK   94  A    between atoms: _253  and  _255
REMARK   95  A    between atoms: _255  and  _256
REMARK   96  A    between atoms: _259  and  _261
REMARK   97  A    between atoms: _261  and  _262
REMARK   98  A    between atoms: _261  and  _264
REMARK   99  A    between atoms: _264  and  _265
REMARK  100  A    between atoms: _270  and  _271
REMARK  101  A    between atoms: _273  and  _275
REMARK  102  A    between atoms: _275  and  _276
REMARK  103  A    between atoms: _275  and  _278
REMARK  104  A    between atoms: _278  and  _279
REMARK  105  A    between atoms: _279  and  _280
REMARK  106  A    between atoms: _280  and  _281
REMARK  107  A    between atoms: _281  and  _282
REMARK  108  A    between atoms: _286  and  _288
REMARK  109  A    between atoms: _288  and  _289
REMARK  110  A    between atoms: _288  and  _291
REMARK  111  A    between atoms: _291  and  _292
REMARK  112  A    between atoms: _292  and  _293
REMARK                            x       y       z     vdW  Elec       q    Type
REMARK                         _______ _______ _______ _____ _____    ______ ____
ROOT
ATOM      1  O   HOH     1       4.649  30.238  32.335  0.00  0.00    +0.000 OA
ENDROOT
TORSDOF 0
REMARK  Name = ../refined-set-2016/2qdt/2qdt_pocket.pdb
REMARK  112 active torsions:
REMARK  status: ('A' for Active; 'I' for Inactive)
REMARK    1  A    between atoms: _1  and  _3
REMARK    2  A    between atoms: _3  and  _4
REMARK    3  A    between atoms: _3  and  _6
REMARK    4  A    between atoms: _6  and  _7
REMARK    5  A    between atoms: _12  and  _13
REMARK    6  A    between atoms: _15  and  _17
REMARK    7  A    between atoms: _17  and  _18
REMARK    8  A    between atoms: _17  and  _20
REMARK    9  A    between atoms: _23  and  _25
REMARK   10  A    between atoms: _25  and  _26
REMARK   11  A    between atoms: _25  and  _28
REMARK   12  A    between atoms: _28  and  _29
REMARK   13  A    between atoms: _39  and  _41
REMARK   14  A    between atoms: _41  and  _42
REMARK   15  A    between atoms: _41  and  _44
REMARK   16  A    between atoms: _44  and  _45
REMARK   17  A    between atoms: _48  and  _50
REMARK   18  A    between atoms: _50  and  _51
REMARK   19  A    between atoms: _50  and  _53
REMARK   20  A    between atoms: _53  and  _54
REMARK   21  A    between atoms: _54  and  _55
REMARK   22  A    between atoms: _57  and  _59
REMARK   23  A    between atoms: _59  and  _60
REMARK   24  A    between atoms: _59  and  _62
REMARK   25  A    between atoms: _62  and  _63
REMARK   26  A    between atoms: _67  and  ZN_298
REMARK   27  A    between atoms: _68  and  _70
REMARK   28  A    between atoms: _70  and  _71
REMARK   29  A    between atoms: _70  and  _73
REMARK   30  A    between atoms: _73  and  _74
REMARK   31  A    between atoms: _75  and  ZN_298
REMARK   32  A    between atoms: _79  and  _81
REMARK   33  A    between atoms: _81  and  _82
REMARK   34  A    between atoms: _85  and  _87
REMARK   35  A    between atoms: _96  and  _97
REMARK   36  A    between atoms: _105  and  _107
REMARK   37  A    between atoms: _107  and  _108
REMARK   38  A    between atoms: _107  and  _110
REMARK   39  A    between atoms: _110  and  _111
REMARK   40  A    between atoms: _114  and  _116
REMARK   41  A    between atoms: _116  and  _117
REMARK   42  A    between atoms: _116  and  _119
REMARK   43  A    between atoms: _119  and  _120
REMARK   44  A    between atoms: _126  and  _128
REMARK   45  A    between atoms: _128  and  _129
REMARK   46  A    between atoms: _128  and  _131
REMARK   47  A    between atoms: _131  and  _132
REMARK   48  A    between atoms: _135  and  _137
REMARK   49  A    between atoms: _137  and  _138
REMARK   50  A    between atoms: _137  and  _140
REMARK   51  A    between atoms: _140  and  _141
REMARK   52  A    between atoms: _145  and  ZN_298
REMARK   53  A    between atoms: _146  and  _148
REMARK   54  A    between atoms: _148  and  _149
REMARK   55  A    between atoms: _148  and  _151
REMARK   56  A    between atoms: _151  and  _152
REMARK   57  A    between atoms: _155  and  _157
REMARK   58  A    between atoms: _157  and  _158
REMARK   59  A    between atoms: _157  and  _160
REMARK   60  A    between atoms: _160  and  _161
REMARK   61  A    between atoms: _164  and  _166
REMARK   62  A    between atoms: _166  and  _167
REMARK   63  A    between atoms: _166  and  _169
REMARK   64  A    between atoms: _169  and  _170
REMARK   65  A    between atoms: _172  and  _174
REMARK   66  A    between atoms: _174  and  _175
REMARK   67  A    between atoms: _174  and  _177
REMARK   68  A    between atoms: _177  and  _178
REMARK   69  A    between atoms: _181  and  _183
REMARK   70  A    between atoms: _183  and  _184
REMARK   71  A    between atoms: _183  and  _186
REMARK   72  A    between atoms: _186  and  _187
REMARK   73  A    between atoms: _189  and  _191
REMARK   74  A    between atoms: _191  and  _192
REMARK   75  A    between atoms: _196  and  _197
REMARK   76  A    between atoms: _202  and  _204
REMARK   77  A    between atoms: _204  and  _205
REMARK   78  A    between atoms: _207  and  _209
REMARK   79  A    between atoms: _209  and  _210
REMARK   80  A    between atoms: _209  and  _212
REMARK   81  A    between atoms: _212  and  _213
REMARK   82  A    between atoms: _218  and  _219
REMARK   83  A    between atoms: _221  and  _223
REMARK   84  A    between atoms: _223  and  _224
REMARK   85  A    between atoms: _223  and  _226
REMARK   86  A    between atoms: _226  and  _227
REMARK   87  A    between atoms: _232  and  _233
REMARK   88  A    between atoms: _236  and  _237
REMARK   89  A    between atoms: _242  and  _244
REMARK   90  A    between atoms: _244  and  _245
REMARK   91  A    between atoms: _244  and  _247
REMARK   92  A    between atoms: _247  and  _248
REMARK   93  A    between atoms: _252  and  ZN_299
REMARK   94  A    between atoms: _253  and  _255
REMARK   95  A    between atoms: _255  and  _256
REMARK   96  A    between atoms: _259  and  _261
REMARK   97  A    between atoms: _261  and  _262
REMARK   98  A    between atoms: _261  and  _264
REMARK   99  A    between atoms: _264  and  _265
REMARK  100  A    between atoms: _270  and  _271
REMARK  101  A    between atoms: _273  and  _275
REMARK  102  A    between atoms: _275  and  _276
REMARK  103  A    between atoms: _275  and  _278
REMARK  104  A    between atoms: _278  and  _279
REMARK  105  A    between atoms: _279  and  _280
REMARK  106  A    between atoms: _280  and  _281
REMARK  107  A    between atoms: _281  and  _282
REMARK  108  A    between atoms: _286  and  _288
REMARK  109  A    between atoms: _288  and  _289
REMARK  110  A    between atoms: _288  and  _291
REMARK  111  A    between atoms: _291  and  _292
REMARK  112  A    between atoms: _292  and  _293
REMARK                            x       y       z     vdW  Elec       q    Type
REMARK                         _______ _______ _______ _____ _____    ______ ____
ROOT
ATOM      1  O   HOH     1       3.226  30.388  34.707  0.00  0.00    +0.000 OA
ENDROOT
TORSDOF 0
REMARK  Name = ../refined-set-2016/2qdt/2qdt_pocket.pdb
REMARK  112 active torsions:
REMARK  status: ('A' for Active; 'I' for Inactive)
REMARK    1  A    between atoms: _1  and  _3
REMARK    2  A    between atoms: _3  and  _4
REMARK    3  A    between atoms: _3  and  _6
REMARK    4  A    between atoms: _6  and  _7
REMARK    5  A    between atoms: _12  and  _13
REMARK    6  A    between atoms: _15  and  _17
REMARK    7  A    between atoms: _17  and  _18
REMARK    8  A    between atoms: _17  and  _20
REMARK    9  A    between atoms: _23  and  _25
REMARK   10  A    between atoms: _25  and  _26
REMARK   11  A    between atoms: _25  and  _28
REMARK   12  A    between atoms: _28  and  _29
REMARK   13  A    between atoms: _39  and  _41
REMARK   14  A    between atoms: _41  and  _42
REMARK   15  A    between atoms: _41  and  _44
REMARK   16  A    between atoms: _44  and  _45
REMARK   17  A    between atoms: _48  and  _50
REMARK   18  A    between atoms: _50  and  _51
REMARK   19  A    between atoms: _50  and  _53
REMARK   20  A    between atoms: _53  and  _54
REMARK   21  A    between atoms: _54  and  _55
REMARK   22  A    between atoms: _57  and  _59
REMARK   23  A    between atoms: _59  and  _60
REMARK   24  A    between atoms: _59  and  _62
REMARK   25  A    between atoms: _62  and  _63
REMARK   26  A    between atoms: _67  and  ZN_298
REMARK   27  A    between atoms: _68  and  _70
REMARK   28  A    between atoms: _70  and  _71
REMARK   29  A    between atoms: _70  and  _73
REMARK   30  A    between atoms: _73  and  _74
REMARK   31  A    between atoms: _75  and  ZN_298
REMARK   32  A    between atoms: _79  and  _81
REMARK   33  A    between atoms: _81  and  _82
REMARK   34  A    between atoms: _85  and  _87
REMARK   35  A    between atoms: _96  and  _97
REMARK   36  A    between atoms: _105  and  _107
REMARK   37  A    between atoms: _107  and  _108
REMARK   38  A    between atoms: _107  and  _110
REMARK   39  A    between atoms: _110  and  _111
REMARK   40  A    between atoms: _114  and  _116
REMARK   41  A    between atoms: _116  and  _117
REMARK   42  A    between atoms: _116  and  _119
REMARK   43  A    between atoms: _119  and  _120
REMARK   44  A    between atoms: _126  and  _128
REMARK   45  A    between atoms: _128  and  _129
REMARK   46  A    between atoms: _128  and  _131
REMARK   47  A    between atoms: _131  and  _132
REMARK   48  A    between atoms: _135  and  _137
REMARK   49  A    between atoms: _137  and  _138
REMARK   50  A    between atoms: _137  and  _140
REMARK   51  A    between atoms: _140  and  _141
REMARK   52  A    between atoms: _145  and  ZN_298
REMARK   53  A    between atoms: _146  and  _148
REMARK   54  A    between atoms: _148  and  _149
REMARK   55  A    between atoms: _148  and  _151
REMARK   56  A    between atoms: _151  and  _152
REMARK   57  A    between atoms: _155  and  _157
REMARK   58  A    between atoms: _157  and  _158
REMARK   59  A    between atoms: _157  and  _160
REMARK   60  A    between atoms: _160  and  _161
REMARK   61  A    between atoms: _164  and  _166
REMARK   62  A    between atoms: _166  and  _167
REMARK   63  A    between atoms: _166  and  _169
REMARK   64  A    between atoms: _169  and  _170
REMARK   65  A    between atoms: _172  and  _174
REMARK   66  A    between atoms: _174  and  _175
REMARK   67  A    between atoms: _174  and  _177
REMARK   68  A    between atoms: _177  and  _178
REMARK   69  A    between atoms: _181  and  _183
REMARK   70  A    between atoms: _183  and  _184
REMARK   71  A    between atoms: _183  and  _186
REMARK   72  A    between atoms: _186  and  _187
REMARK   73  A    between atoms: _189  and  _191
REMARK   74  A    between atoms: _191  and  _192
REMARK   75  A    between atoms: _196  and  _197
REMARK   76  A    between atoms: _202  and  _204
REMARK   77  A    between atoms: _204  and  _205
REMARK   78  A    between atoms: _207  and  _209
REMARK   79  A    between atoms: _209  and  _210
REMARK   80  A    between atoms: _209  and  _212
REMARK   81  A    between atoms: _212  and  _213
REMARK   82  A    between atoms: _218  and  _219
REMARK   83  A    between atoms: _221  and  _223
REMARK   84  A    between atoms: _223  and  _224
REMARK   85  A    between atoms: _223  and  _226
REMARK   86  A    between atoms: _226  and  _227
REMARK   87  A    between atoms: _232  and  _233
REMARK   88  A    between atoms: _236  and  _237
REMARK   89  A    between atoms: _242  and  _244
REMARK   90  A    between atoms: _244  and  _245
REMARK   91  A    between atoms: _244  and  _247
REMARK   92  A    between atoms: _247  and  _248
REMARK   93  A    between atoms: _252  and  ZN_299
REMARK   94  A    between atoms: _253  and  _255
REMARK   95  A    between atoms: _255  and  _256
REMARK   96  A    between atoms: _259  and  _261
REMARK   97  A    between atoms: _261  and  _262
REMARK   98  A    between atoms: _261  and  _264
REMARK   99  A    between atoms: _264  and  _265
REMARK  100  A    between atoms: _270  and  _271
REMARK  101  A    between atoms: _273  and  _275
REMARK  102  A    between atoms: _275  and  _276
REMARK  103  A    between atoms: _275  and  _278
REMARK  104  A    between atoms: _278  and  _279
REMARK  105  A    between atoms: _279  and  _280
REMARK  106  A    between atoms: _280  and  _281
REMARK  107  A    between atoms: _281  and  _282
REMARK  108  A    between atoms: _286  and  _288
REMARK  109  A    between atoms: _288  and  _289
REMARK  110  A    between atoms: _288  and  _291
REMARK  111  A    between atoms: _291  and  _292
REMARK  112  A    between atoms: _292  and  _293
REMARK                            x       y       z     vdW  Elec       q    Type
REMARK                         _______ _______ _______ _____ _____    ______ ____
ROOT
ATOM      1  O   HOH     1      10.552  33.451  39.205  0.00  0.00    +0.000 OA
ENDROOT
TORSDOF 0
REMARK  Name = ../refined-set-2016/2qdt/2qdt_pocket.pdb
REMARK  112 active torsions:
REMARK  status: ('A' for Active; 'I' for Inactive)
REMARK    1  A    between atoms: _1  and  _3
REMARK    2  A    between atoms: _3  and  _4
REMARK    3  A    between atoms: _3  and  _6
REMARK    4  A    between atoms: _6  and  _7
REMARK    5  A    between atoms: _12  and  _13
REMARK    6  A    between atoms: _15  and  _17
REMARK    7  A    between atoms: _17  and  _18
REMARK    8  A    between atoms: _17  and  _20
REMARK    9  A    between atoms: _23  and  _25
REMARK   10  A    between atoms: _25  and  _26
REMARK   11  A    between atoms: _25  and  _28
REMARK   12  A    between atoms: _28  and  _29
REMARK   13  A    between atoms: _39  and  _41
REMARK   14  A    between atoms: _41  and  _42
REMARK   15  A    between atoms: _41  and  _44
REMARK   16  A    between atoms: _44  and  _45
REMARK   17  A    between atoms: _48  and  _50
REMARK   18  A    between atoms: _50  and  _51
REMARK   19  A    between atoms: _50  and  _53
REMARK   20  A    between atoms: _53  and  _54
REMARK   21  A    between atoms: _54  and  _55
REMARK   22  A    between atoms: _57  and  _59
REMARK   23  A    between atoms: _59  and  _60
REMARK   24  A    between atoms: _59  and  _62
REMARK   25  A    between atoms: _62  and  _63
REMARK   26  A    between atoms: _67  and  ZN_298
REMARK   27  A    between atoms: _68  and  _70
REMARK   28  A    between atoms: _70  and  _71
REMARK   29  A    between atoms: _70  and  _73
REMARK   30  A    between atoms: _73  and  _74
REMARK   31  A    between atoms: _75  and  ZN_298
REMARK   32  A    between atoms: _79  and  _81
REMARK   33  A    between atoms: _81  and  _82
REMARK   34  A    between atoms: _85  and  _87
REMARK   35  A    between atoms: _96  and  _97
REMARK   36  A    between atoms: _105  and  _107
REMARK   37  A    between atoms: _107  and  _108
REMARK   38  A    between atoms: _107  and  _110
REMARK   39  A    between atoms: _110  and  _111
REMARK   40  A    between atoms: _114  and  _116
REMARK   41  A    between atoms: _116  and  _117
REMARK   42  A    between atoms: _116  and  _119
REMARK   43  A    between atoms: _119  and  _120
REMARK   44  A    between atoms: _126  and  _128
REMARK   45  A    between atoms: _128  and  _129
REMARK   46  A    between atoms: _128  and  _131
REMARK   47  A    between atoms: _131  and  _132
REMARK   48  A    between atoms: _135  and  _137
REMARK   49  A    between atoms: _137  and  _138
REMARK   50  A    between atoms: _137  and  _140
REMARK   51  A    between atoms: _140  and  _141
REMARK   52  A    between atoms: _145  and  ZN_298
REMARK   53  A    between atoms: _146  and  _148
REMARK   54  A    between atoms: _148  and  _149
REMARK   55  A    between atoms: _148  and  _151
REMARK   56  A    between atoms: _151  and  _152
REMARK   57  A    between atoms: _155  and  _157
REMARK   58  A    between atoms: _157  and  _158
REMARK   59  A    between atoms: _157  and  _160
REMARK   60  A    between atoms: _160  and  _161
REMARK   61  A    between atoms: _164  and  _166
REMARK   62  A    between atoms: _166  and  _167
REMARK   63  A    between atoms: _166  and  _169
REMARK   64  A    between atoms: _169  and  _170
REMARK   65  A    between atoms: _172  and  _174
REMARK   66  A    between atoms: _174  and  _175
REMARK   67  A    between atoms: _174  and  _177
REMARK   68  A    between atoms: _177  and  _178
REMARK   69  A    between atoms: _181  and  _183
REMARK   70  A    between atoms: _183  and  _184
REMARK   71  A    between atoms: _183  and  _186
REMARK   72  A    between atoms: _186  and  _187
REMARK   73  A    between atoms: _189  and  _191
REMARK   74  A    between atoms: _191  and  _192
REMARK   75  A    between atoms: _196  and  _197
REMARK   76  A    between atoms: _202  and  _204
REMARK   77  A    between atoms: _204  and  _205
REMARK   78  A    between atoms: _207  and  _209
REMARK   79  A    between atoms: _209  and  _210
REMARK   80  A    between atoms: _209  and  _212
REMARK   81  A    between atoms: _212  and  _213
REMARK   82  A    between atoms: _218  and  _219
REMARK   83  A    between atoms: _221  and  _223
REMARK   84  A    between atoms: _223  and  _224
REMARK   85  A    between atoms: _223  and  _226
REMARK   86  A    between atoms: _226  and  _227
REMARK   87  A    between atoms: _232  and  _233
REMARK   88  A    between atoms: _236  and  _237
REMARK   89  A    between atoms: _242  and  _244
REMARK   90  A    between atoms: _244  and  _245
REMARK   91  A    between atoms: _244  and  _247
REMARK   92  A    between atoms: _247  and  _248
REMARK   93  A    between atoms: _252  and  ZN_299
REMARK   94  A    between atoms: _253  and  _255
REMARK   95  A    between atoms: _255  and  _256
REMARK   96  A    between atoms: _259  and  _261
REMARK   97  A    between atoms: _261  and  _262
REMARK   98  A    between atoms: _261  and  _264
REMARK   99  A    between atoms: _264  and  _265
REMARK  100  A    between atoms: _270  and  _271
REMARK  101  A    between atoms: _273  and  _275
REMARK  102  A    between atoms: _275  and  _276
REMARK  103  A    between atoms: _275  and  _278
REMARK  104  A    between atoms: _278  and  _279
REMARK  105  A    between atoms: _279  and  _280
REMARK  106  A    between atoms: _280  and  _281
REMARK  107  A    between atoms: _281  and  _282
REMARK  108  A    between atoms: _286  and  _288
REMARK  109  A    between atoms: _288  and  _289
REMARK  110  A    between atoms: _288  and  _291
REMARK  111  A    between atoms: _291  and  _292
REMARK  112  A    between atoms: _292  and  _293
REMARK                            x       y       z     vdW  Elec       q    Type
REMARK                         _______ _______ _______ _____ _____    ______ ____
ROOT
ATOM      1  O   HOH     1      12.248  30.283  42.202  0.00  0.00    +0.000 OA
ENDROOT
TORSDOF 0
REMARK  Name = ../refined-set-2016/2qdt/2qdt_pocket.pdb
REMARK  112 active torsions:
REMARK  status: ('A' for Active; 'I' for Inactive)
REMARK    1  A    between atoms: _1  and  _3
REMARK    2  A    between atoms: _3  and  _4
REMARK    3  A    between atoms: _3  and  _6
REMARK    4  A    between atoms: _6  and  _7
REMARK    5  A    between atoms: _12  and  _13
REMARK    6  A    between atoms: _15  and  _17
REMARK    7  A    between atoms: _17  and  _18
REMARK    8  A    between atoms: _17  and  _20
REMARK    9  A    between atoms: _23  and  _25
REMARK   10  A    between atoms: _25  and  _26
REMARK   11  A    between atoms: _25  and  _28
REMARK   12  A    between atoms: _28  and  _29
REMARK   13  A    between atoms: _39  and  _41
REMARK   14  A    between atoms: _41  and  _42
REMARK   15  A    between atoms: _41  and  _44
REMARK   16  A    between atoms: _44  and  _45
REMARK   17  A    between atoms: _48  and  _50
REMARK   18  A    between atoms: _50  and  _51
REMARK   19  A    between atoms: _50  and  _53
REMARK   20  A    between atoms: _53  and  _54
REMARK   21  A    between atoms: _54  and  _55
REMARK   22  A    between atoms: _57  and  _59
REMARK   23  A    between atoms: _59  and  _60
REMARK   24  A    between atoms: _59  and  _62
REMARK   25  A    between atoms: _62  and  _63
REMARK   26  A    between atoms: _67  and  ZN_298
REMARK   27  A    between atoms: _68  and  _70
REMARK   28  A    between atoms: _70  and  _71
REMARK   29  A    between atoms: _70  and  _73
REMARK   30  A    between atoms: _73  and  _74
REMARK   31  A    between atoms: _75  and  ZN_298
REMARK   32  A    between atoms: _79  and  _81
REMARK   33  A    between atoms: _81  and  _82
REMARK   34  A    between atoms: _85  and  _87
REMARK   35  A    between atoms: _96  and  _97
REMARK   36  A    between atoms: _105  and  _107
REMARK   37  A    between atoms: _107  and  _108
REMARK   38  A    between atoms: _107  and  _110
REMARK   39  A    between atoms: _110  and  _111
REMARK   40  A    between atoms: _114  and  _116
REMARK   41  A    between atoms: _116  and  _117
REMARK   42  A    between atoms: _116  and  _119
REMARK   43  A    between atoms: _119  and  _120
REMARK   44  A    between atoms: _126  and  _128
REMARK   45  A    between atoms: _128  and  _129
REMARK   46  A    between atoms: _128  and  _131
REMARK   47  A    between atoms: _131  and  _132
REMARK   48  A    between atoms: _135  and  _137
REMARK   49  A    between atoms: _137  and  _138
REMARK   50  A    between atoms: _137  and  _140
REMARK   51  A    between atoms: _140  and  _141
REMARK   52  A    between atoms: _145  and  ZN_298
REMARK   53  A    between atoms: _146  and  _148
REMARK   54  A    between atoms: _148  and  _149
REMARK   55  A    between atoms: _148  and  _151
REMARK   56  A    between atoms: _151  and  _152
REMARK   57  A    between atoms: _155  and  _157
REMARK   58  A    between atoms: _157  and  _158
REMARK   59  A    between atoms: _157  and  _160
REMARK   60  A    between atoms: _160  and  _161
REMARK   61  A    between atoms: _164  and  _166
REMARK   62  A    between atoms: _166  and  _167
REMARK   63  A    between atoms: _166  and  _169
REMARK   64  A    between atoms: _169  and  _170
REMARK   65  A    between atoms: _172  and  _174
REMARK   66  A    between atoms: _174  and  _175
REMARK   67  A    between atoms: _174  and  _177
REMARK   68  A    between atoms: _177  and  _178
REMARK   69  A    between atoms: _181  and  _183
REMARK   70  A    between atoms: _183  and  _184
REMARK   71  A    between atoms: _183  and  _186
REMARK   72  A    between atoms: _186  and  _187
REMARK   73  A    between atoms: _189  and  _191
REMARK   74  A    between atoms: _191  and  _192
REMARK   75  A    between atoms: _196  and  _197
REMARK   76  A    between atoms: _202  and  _204
REMARK   77  A    between atoms: _204  and  _205
REMARK   78  A    between atoms: _207  and  _209
REMARK   79  A    between atoms: _209  and  _210
REMARK   80  A    between atoms: _209  and  _212
REMARK   81  A    between atoms: _212  and  _213
REMARK   82  A    between atoms: _218  and  _219
REMARK   83  A    between atoms: _221  and  _223
REMARK   84  A    between atoms: _223  and  _224
REMARK   85  A    between atoms: _223  and  _226
REMARK   86  A    between atoms: _226  and  _227
REMARK   87  A    between atoms: _232  and  _233
REMARK   88  A    between atoms: _236  and  _237
REMARK   89  A    between atoms: _242  and  _244
REMARK   90  A    between atoms: _244  and  _245
REMARK   91  A    between atoms: _244  and  _247
REMARK   92  A    between atoms: _247  and  _248
REMARK   93  A    between atoms: _252  and  ZN_299
REMARK   94  A    between atoms: _253  and  _255
REMARK   95  A    between atoms: _255  and  _256
REMARK   96  A    between atoms: _259  and  _261
REMARK   97  A    between atoms: _261  and  _262
REMARK   98  A    between atoms: _261  and  _264
REMARK   99  A    between atoms: _264  and  _265
REMARK  100  A    between atoms: _270  and  _271
REMARK  101  A    between atoms: _273  and  _275
REMARK  102  A    between atoms: _275  and  _276
REMARK  103  A    between atoms: _275  and  _278
REMARK  104  A    between atoms: _278  and  _279
REMARK  105  A    between atoms: _279  and  _280
REMARK  106  A    between atoms: _280  and  _281
REMARK  107  A    between atoms: _281  and  _282
REMARK  108  A    between atoms: _286  and  _288
REMARK  109  A    between atoms: _288  and  _289
REMARK  110  A    between atoms: _288  and  _291
REMARK  111  A    between atoms: _291  and  _292
REMARK  112  A    between atoms: _292  and  _293
REMARK                            x       y       z     vdW  Elec       q    Type
REMARK                         _______ _______ _______ _____ _____    ______ ____
ROOT
ATOM      1  O   HOH     1      17.229  23.382  38.695  0.00  0.00    +0.000 OA
ENDROOT
TORSDOF 0
REMARK  Name = ../refined-set-2016/2qdt/2qdt_pocket.pdb
REMARK  112 active torsions:
REMARK  status: ('A' for Active; 'I' for Inactive)
REMARK    1  A    between atoms: _1  and  _3
REMARK    2  A    between atoms: _3  and  _4
REMARK    3  A    between atoms: _3  and  _6
REMARK    4  A    between atoms: _6  and  _7
REMARK    5  A    between atoms: _12  and  _13
REMARK    6  A    between atoms: _15  and  _17
REMARK    7  A    between atoms: _17  and  _18
REMARK    8  A    between atoms: _17  and  _20
REMARK    9  A    between atoms: _23  and  _25
REMARK   10  A    between atoms: _25  and  _26
REMARK   11  A    between atoms: _25  and  _28
REMARK   12  A    between atoms: _28  and  _29
REMARK   13  A    between atoms: _39  and  _41
REMARK   14  A    between atoms: _41  and  _42
REMARK   15  A    between atoms: _41  and  _44
REMARK   16  A    between atoms: _44  and  _45
REMARK   17  A    between atoms: _48  and  _50
REMARK   18  A    between atoms: _50  and  _51
REMARK   19  A    between atoms: _50  and  _53
REMARK   20  A    between atoms: _53  and  _54
REMARK   21  A    between atoms: _54  and  _55
REMARK   22  A    between atoms: _57  and  _59
REMARK   23  A    between atoms: _59  and  _60
REMARK   24  A    between atoms: _59  and  _62
REMARK   25  A    between atoms: _62  and  _63
REMARK   26  A    between atoms: _67  and  ZN_298
REMARK   27  A    between atoms: _68  and  _70
REMARK   28  A    between atoms: _70  and  _71
REMARK   29  A    between atoms: _70  and  _73
REMARK   30  A    between atoms: _73  and  _74
REMARK   31  A    between atoms: _75  and  ZN_298
REMARK   32  A    between atoms: _79  and  _81
REMARK   33  A    between atoms: _81  and  _82
REMARK   34  A    between atoms: _85  and  _87
REMARK   35  A    between atoms: _96  and  _97
REMARK   36  A    between atoms: _105  and  _107
REMARK   37  A    between atoms: _107  and  _108
REMARK   38  A    between atoms: _107  and  _110
REMARK   39  A    between atoms: _110  and  _111
REMARK   40  A    between atoms: _114  and  _116
REMARK   41  A    between atoms: _116  and  _117
REMARK   42  A    between atoms: _116  and  _119
REMARK   43  A    between atoms: _119  and  _120
REMARK   44  A    between atoms: _126  and  _128
REMARK   45  A    between atoms: _128  and  _129
REMARK   46  A    between atoms: _128  and  _131
REMARK   47  A    between atoms: _131  and  _132
REMARK   48  A    between atoms: _135  and  _137
REMARK   49  A    between atoms: _137  and  _138
REMARK   50  A    between atoms: _137  and  _140
REMARK   51  A    between atoms: _140  and  _141
REMARK   52  A    between atoms: _145  and  ZN_298
REMARK   53  A    between atoms: _146  and  _148
REMARK   54  A    between atoms: _148  and  _149
REMARK   55  A    between atoms: _148  and  _151
REMARK   56  A    between atoms: _151  and  _152
REMARK   57  A    between atoms: _155  and  _157
REMARK   58  A    between atoms: _157  and  _158
REMARK   59  A    between atoms: _157  and  _160
REMARK   60  A    between atoms: _160  and  _161
REMARK   61  A    between atoms: _164  and  _166
REMARK   62  A    between atoms: _166  and  _167
REMARK   63  A    between atoms: _166  and  _169
REMARK   64  A    between atoms: _169  and  _170
REMARK   65  A    between atoms: _172  and  _174
REMARK   66  A    between atoms: _174  and  _175
REMARK   67  A    between atoms: _174  and  _177
REMARK   68  A    between atoms: _177  and  _178
REMARK   69  A    between atoms: _181  and  _183
REMARK   70  A    between atoms: _183  and  _184
REMARK   71  A    between atoms: _183  and  _186
REMARK   72  A    between atoms: _186  and  _187
REMARK   73  A    between atoms: _189  and  _191
REMARK   74  A    between atoms: _191  and  _192
REMARK   75  A    between atoms: _196  and  _197
REMARK   76  A    between atoms: _202  and  _204
REMARK   77  A    between atoms: _204  and  _205
REMARK   78  A    between atoms: _207  and  _209
REMARK   79  A    between atoms: _209  and  _210
REMARK   80  A    between atoms: _209  and  _212
REMARK   81  A    between atoms: _212  and  _213
REMARK   82  A    between atoms: _218  and  _219
REMARK   83  A    between atoms: _221  and  _223
REMARK   84  A    between atoms: _223  and  _224
REMARK   85  A    between atoms: _223  and  _226
REMARK   86  A    between atoms: _226  and  _227
REMARK   87  A    between atoms: _232  and  _233
REMARK   88  A    between atoms: _236  and  _237
REMARK   89  A    between atoms: _242  and  _244
REMARK   90  A    between atoms: _244  and  _245
REMARK   91  A    between atoms: _244  and  _247
REMARK   92  A    between atoms: _247  and  _248
REMARK   93  A    between atoms: _252  and  ZN_299
REMARK   94  A    between atoms: _253  and  _255
REMARK   95  A    between atoms: _255  and  _256
REMARK   96  A    between atoms: _259  and  _261
REMARK   97  A    between atoms: _261  and  _262
REMARK   98  A    between atoms: _261  and  _264
REMARK   99  A    between atoms: _264  and  _265
REMARK  100  A    between atoms: _270  and  _271
REMARK  101  A    between atoms: _273  and  _275
REMARK  102  A    between atoms: _275  and  _276
REMARK  103  A    between atoms: _275  and  _278
REMARK  104  A    between atoms: _278  and  _279
REMARK  105  A    between atoms: _279  and  _280
REMARK  106  A    between atoms: _280  and  _281
REMARK  107  A    between atoms: _281  and  _282
REMARK  108  A    between atoms: _286  and  _288
REMARK  109  A    between atoms: _288  and  _289
REMARK  110  A    between atoms: _288  and  _291
REMARK  111  A    between atoms: _291  and  _292
REMARK  112  A    between atoms: _292  and  _293
REMARK                            x       y       z     vdW  Elec       q    Type
REMARK                         _______ _______ _______ _____ _____    ______ ____
ROOT
ATOM      1  O   HOH     1       9.924  24.401  27.467  0.00  0.00    +0.000 OA
ENDROOT
TORSDOF 0
REMARK  Name = ../refined-set-2016/2qdt/2qdt_pocket.pdb
REMARK  112 active torsions:
REMARK  status: ('A' for Active; 'I' for Inactive)
REMARK    1  A    between atoms: _1  and  _3
REMARK    2  A    between atoms: _3  and  _4
REMARK    3  A    between atoms: _3  and  _6
REMARK    4  A    between atoms: _6  and  _7
REMARK    5  A    between atoms: _12  and  _13
REMARK    6  A    between atoms: _15  and  _17
REMARK    7  A    between atoms: _17  and  _18
REMARK    8  A    between atoms: _17  and  _20
REMARK    9  A    between atoms: _23  and  _25
REMARK   10  A    between atoms: _25  and  _26
REMARK   11  A    between atoms: _25  and  _28
REMARK   12  A    between atoms: _28  and  _29
REMARK   13  A    between atoms: _39  and  _41
REMARK   14  A    between atoms: _41  and  _42
REMARK   15  A    between atoms: _41  and  _44
REMARK   16  A    between atoms: _44  and  _45
REMARK   17  A    between atoms: _48  and  _50
REMARK   18  A    between atoms: _50  and  _51
REMARK   19  A    between atoms: _50  and  _53
REMARK   20  A    between atoms: _53  and  _54
REMARK   21  A    between atoms: _54  and  _55
REMARK   22  A    between atoms: _57  and  _59
REMARK   23  A    between atoms: _59  and  _60
REMARK   24  A    between atoms: _59  and  _62
REMARK   25  A    between atoms: _62  and  _63
REMARK   26  A    between atoms: _67  and  ZN_298
REMARK   27  A    between atoms: _68  and  _70
REMARK   28  A    between atoms: _70  and  _71
REMARK   29  A    between atoms: _70  and  _73
REMARK   30  A    between atoms: _73  and  _74
REMARK   31  A    between atoms: _75  and  ZN_298
REMARK   32  A    between atoms: _79  and  _81
REMARK   33  A    between atoms: _81  and  _82
REMARK   34  A    between atoms: _85  and  _87
REMARK   35  A    between atoms: _96  and  _97
REMARK   36  A    between atoms: _105  and  _107
REMARK   37  A    between atoms: _107  and  _108
REMARK   38  A    between atoms: _107  and  _110
REMARK   39  A    between atoms: _110  and  _111
REMARK   40  A    between atoms: _114  and  _116
REMARK   41  A    between atoms: _116  and  _117
REMARK   42  A    between atoms: _116  and  _119
REMARK   43  A    between atoms: _119  and  _120
REMARK   44  A    between atoms: _126  and  _128
REMARK   45  A    between atoms: _128  and  _129
REMARK   46  A    between atoms: _128  and  _131
REMARK   47  A    between atoms: _131  and  _132
REMARK   48  A    between atoms: _135  and  _137
REMARK   49  A    between atoms: _137  and  _138
REMARK   50  A    between atoms: _137  and  _140
REMARK   51  A    between atoms: _140  and  _141
REMARK   52  A    between atoms: _145  and  ZN_298
REMARK   53  A    between atoms: _146  and  _148
REMARK   54  A    between atoms: _148  and  _149
REMARK   55  A    between atoms: _148  and  _151
REMARK   56  A    between atoms: _151  and  _152
REMARK   57  A    between atoms: _155  and  _157
REMARK   58  A    between atoms: _157  and  _158
REMARK   59  A    between atoms: _157  and  _160
REMARK   60  A    between atoms: _160  and  _161
REMARK   61  A    between atoms: _164  and  _166
REMARK   62  A    between atoms: _166  and  _167
REMARK   63  A    between atoms: _166  and  _169
REMARK   64  A    between atoms: _169  and  _170
REMARK   65  A    between atoms: _172  and  _174
REMARK   66  A    between atoms: _174  and  _175
REMARK   67  A    between atoms: _174  and  _177
REMARK   68  A    between atoms: _177  and  _178
REMARK   69  A    between atoms: _181  and  _183
REMARK   70  A    between atoms: _183  and  _184
REMARK   71  A    between atoms: _183  and  _186
REMARK   72  A    between atoms: _186  and  _187
REMARK   73  A    between atoms: _189  and  _191
REMARK   74  A    between atoms: _191  and  _192
REMARK   75  A    between atoms: _196  and  _197
REMARK   76  A    between atoms: _202  and  _204
REMARK   77  A    between atoms: _204  and  _205
REMARK   78  A    between atoms: _207  and  _209
REMARK   79  A    between atoms: _209  and  _210
REMARK   80  A    between atoms: _209  and  _212
REMARK   81  A    between atoms: _212  and  _213
REMARK   82  A    between atoms: _218  and  _219
REMARK   83  A    between atoms: _221  and  _223
REMARK   84  A    between atoms: _223  and  _224
REMARK   85  A    between atoms: _223  and  _226
REMARK   86  A    between atoms: _226  and  _227
REMARK   87  A    between atoms: _232  and  _233
REMARK   88  A    between atoms: _236  and  _237
REMARK   89  A    between atoms: _242  and  _244
REMARK   90  A    between atoms: _244  and  _245
REMARK   91  A    between atoms: _244  and  _247
REMARK   92  A    between atoms: _247  and  _248
REMARK   93  A    between atoms: _252  and  ZN_299
REMARK   94  A    between atoms: _253  and  _255
REMARK   95  A    between atoms: _255  and  _256
REMARK   96  A    between atoms: _259  and  _261
REMARK   97  A    between atoms: _261  and  _262
REMARK   98  A    between atoms: _261  and  _264
REMARK   99  A    between atoms: _264  and  _265
REMARK  100  A    between atoms: _270  and  _271
REMARK  101  A    between atoms: _273  and  _275
REMARK  102  A    between atoms: _275  and  _276
REMARK  103  A    between atoms: _275  and  _278
REMARK  104  A    between atoms: _278  and  _279
REMARK  105  A    between atoms: _279  and  _280
REMARK  106  A    between atoms: _280  and  _281
REMARK  107  A    between atoms: _281  and  _282
REMARK  108  A    between atoms: _286  and  _288
REMARK  109  A    between atoms: _288  and  _289
REMARK  110  A    between atoms: _288  and  _291
REMARK  111  A    between atoms: _291  and  _292
REMARK  112  A    between atoms: _292  and  _293
REMARK                            x       y       z     vdW  Elec       q    Type
REMARK                         _______ _______ _______ _____ _____    ______ ____
ROOT
ATOM      1  O   HOH     1      19.998  25.111  32.521  0.00  0.00    +0.000 OA
ENDROOT
TORSDOF 0
REMARK  Name = ../refined-set-2016/2qdt/2qdt_pocket.pdb
REMARK  112 active torsions:
REMARK  status: ('A' for Active; 'I' for Inactive)
REMARK    1  A    between atoms: _1  and  _3
REMARK    2  A    between atoms: _3  and  _4
REMARK    3  A    between atoms: _3  and  _6
REMARK    4  A    between atoms: _6  and  _7
REMARK    5  A    between atoms: _12  and  _13
REMARK    6  A    between atoms: _15  and  _17
REMARK    7  A    between atoms: _17  and  _18
REMARK    8  A    between atoms: _17  and  _20
REMARK    9  A    between atoms: _23  and  _25
REMARK   10  A    between atoms: _25  and  _26
REMARK   11  A    between atoms: _25  and  _28
REMARK   12  A    between atoms: _28  and  _29
REMARK   13  A    between atoms: _39  and  _41
REMARK   14  A    between atoms: _41  and  _42
REMARK   15  A    between atoms: _41  and  _44
REMARK   16  A    between atoms: _44  and  _45
REMARK   17  A    between atoms: _48  and  _50
REMARK   18  A    between atoms: _50  and  _51
REMARK   19  A    between atoms: _50  and  _53
REMARK   20  A    between atoms: _53  and  _54
REMARK   21  A    between atoms: _54  and  _55
REMARK   22  A    between atoms: _57  and  _59
REMARK   23  A    between atoms: _59  and  _60
REMARK   24  A    between atoms: _59  and  _62
REMARK   25  A    between atoms: _62  and  _63
REMARK   26  A    between atoms: _67  and  ZN_298
REMARK   27  A    between atoms: _68  and  _70
REMARK   28  A    between atoms: _70  and  _71
REMARK   29  A    between atoms: _70  and  _73
REMARK   30  A    between atoms: _73  and  _74
REMARK   31  A    between atoms: _75  and  ZN_298
REMARK   32  A    between atoms: _79  and  _81
REMARK   33  A    between atoms: _81  and  _82
REMARK   34  A    between atoms: _85  and  _87
REMARK   35  A    between atoms: _96  and  _97
REMARK   36  A    between atoms: _105  and  _107
REMARK   37  A    between atoms: _107  and  _108
REMARK   38  A    between atoms: _107  and  _110
REMARK   39  A    between atoms: _110  and  _111
REMARK   40  A    between atoms: _114  and  _116
REMARK   41  A    between atoms: _116  and  _117
REMARK   42  A    between atoms: _116  and  _119
REMARK   43  A    between atoms: _119  and  _120
REMARK   44  A    between atoms: _126  and  _128
REMARK   45  A    between atoms: _128  and  _129
REMARK   46  A    between atoms: _128  and  _131
REMARK   47  A    between atoms: _131  and  _132
REMARK   48  A    between atoms: _135  and  _137
REMARK   49  A    between atoms: _137  and  _138
REMARK   50  A    between atoms: _137  and  _140
REMARK   51  A    between atoms: _140  and  _141
REMARK   52  A    between atoms: _145  and  ZN_298
REMARK   53  A    between atoms: _146  and  _148
REMARK   54  A    between atoms: _148  and  _149
REMARK   55  A    between atoms: _148  and  _151
REMARK   56  A    between atoms: _151  and  _152
REMARK   57  A    between atoms: _155  and  _157
REMARK   58  A    between atoms: _157  and  _158
REMARK   59  A    between atoms: _157  and  _160
REMARK   60  A    between atoms: _160  and  _161
REMARK   61  A    between atoms: _164  and  _166
REMARK   62  A    between atoms: _166  and  _167
REMARK   63  A    between atoms: _166  and  _169
REMARK   64  A    between atoms: _169  and  _170
REMARK   65  A    between atoms: _172  and  _174
REMARK   66  A    between atoms: _174  and  _175
REMARK   67  A    between atoms: _174  and  _177
REMARK   68  A    between atoms: _177  and  _178
REMARK   69  A    between atoms: _181  and  _183
REMARK   70  A    between atoms: _183  and  _184
REMARK   71  A    between atoms: _183  and  _186
REMARK   72  A    between atoms: _186  and  _187
REMARK   73  A    between atoms: _189  and  _191
REMARK   74  A    between atoms: _191  and  _192
REMARK   75  A    between atoms: _196  and  _197
REMARK   76  A    between atoms: _202  and  _204
REMARK   77  A    between atoms: _204  and  _205
REMARK   78  A    between atoms: _207  and  _209
REMARK   79  A    between atoms: _209  and  _210
REMARK   80  A    between atoms: _209  and  _212
REMARK   81  A    between atoms: _212  and  _213
REMARK   82  A    between atoms: _218  and  _219
REMARK   83  A    between atoms: _221  and  _223
REMARK   84  A    between atoms: _223  and  _224
REMARK   85  A    between atoms: _223  and  _226
REMARK   86  A    between atoms: _226  and  _227
REMARK   87  A    between atoms: _232  and  _233
REMARK   88  A    between atoms: _236  and  _237
REMARK   89  A    between atoms: _242  and  _244
REMARK   90  A    between atoms: _244  and  _245
REMARK   91  A    between atoms: _244  and  _247
REMARK   92  A    between atoms: _247  and  _248
REMARK   93  A    between atoms: _252  and  ZN_299
REMARK   94  A    between atoms: _253  and  _255
REMARK   95  A    between atoms: _255  and  _256
REMARK   96  A    between atoms: _259  and  _261
REMARK   97  A    between atoms: _261  and  _262
REMARK   98  A    between atoms: _261  and  _264
REMARK   99  A    between atoms: _264  and  _265
REMARK  100  A    between atoms: _270  and  _271
REMARK  101  A    between atoms: _273  and  _275
REMARK  102  A    between atoms: _275  and  _276
REMARK  103  A    between atoms: _275  and  _278
REMARK  104  A    between atoms: _278  and  _279
REMARK  105  A    between atoms: _279  and  _280
REMARK  106  A    between atoms: _280  and  _281
REMARK  107  A    between atoms: _281  and  _282
REMARK  108  A    between atoms: _286  and  _288
REMARK  109  A    between atoms: _288  and  _289
REMARK  110  A    between atoms: _288  and  _291
REMARK  111  A    between atoms: _291  and  _292
REMARK  112  A    between atoms: _292  and  _293
REMARK                            x       y       z     vdW  Elec       q    Type
REMARK                         _______ _______ _______ _____ _____    ______ ____
ROOT
ATOM      1  O   HOH     1      14.811  27.524  40.243  0.00  0.00    +0.000 OA
ENDROOT
TORSDOF 0
REMARK  Name = ../refined-set-2016/2qdt/2qdt_pocket.pdb
REMARK  112 active torsions:
REMARK  status: ('A' for Active; 'I' for Inactive)
REMARK    1  A    between atoms: _1  and  _3
REMARK    2  A    between atoms: _3  and  _4
REMARK    3  A    between atoms: _3  and  _6
REMARK    4  A    between atoms: _6  and  _7
REMARK    5  A    between atoms: _12  and  _13
REMARK    6  A    between atoms: _15  and  _17
REMARK    7  A    between atoms: _17  and  _18
REMARK    8  A    between atoms: _17  and  _20
REMARK    9  A    between atoms: _23  and  _25
REMARK   10  A    between atoms: _25  and  _26
REMARK   11  A    between atoms: _25  and  _28
REMARK   12  A    between atoms: _28  and  _29
REMARK   13  A    between atoms: _39  and  _41
REMARK   14  A    between atoms: _41  and  _42
REMARK   15  A    between atoms: _41  and  _44
REMARK   16  A    between atoms: _44  and  _45
REMARK   17  A    between atoms: _48  and  _50
REMARK   18  A    between atoms: _50  and  _51
REMARK   19  A    between atoms: _50  and  _53
REMARK   20  A    between atoms: _53  and  _54
REMARK   21  A    between atoms: _54  and  _55
REMARK   22  A    between atoms: _57  and  _59
REMARK   23  A    between atoms: _59  and  _60
REMARK   24  A    between atoms: _59  and  _62
REMARK   25  A    between atoms: _62  and  _63
REMARK   26  A    between atoms: _67  and  ZN_298
REMARK   27  A    between atoms: _68  and  _70
REMARK   28  A    between atoms: _70  and  _71
REMARK   29  A    between atoms: _70  and  _73
REMARK   30  A    between atoms: _73  and  _74
REMARK   31  A    between atoms: _75  and  ZN_298
REMARK   32  A    between atoms: _79  and  _81
REMARK   33  A    between atoms: _81  and  _82
REMARK   34  A    between atoms: _85  and  _87
REMARK   35  A    between atoms: _96  and  _97
REMARK   36  A    between atoms: _105  and  _107
REMARK   37  A    between atoms: _107  and  _108
REMARK   38  A    between atoms: _107  and  _110
REMARK   39  A    between atoms: _110  and  _111
REMARK   40  A    between atoms: _114  and  _116
REMARK   41  A    between atoms: _116  and  _117
REMARK   42  A    between atoms: _116  and  _119
REMARK   43  A    between atoms: _119  and  _120
REMARK   44  A    between atoms: _126  and  _128
REMARK   45  A    between atoms: _128  and  _129
REMARK   46  A    between atoms: _128  and  _131
REMARK   47  A    between atoms: _131  and  _132
REMARK   48  A    between atoms: _135  and  _137
REMARK   49  A    between atoms: _137  and  _138
REMARK   50  A    between atoms: _137  and  _140
REMARK   51  A    between atoms: _140  and  _141
REMARK   52  A    between atoms: _145  and  ZN_298
REMARK   53  A    between atoms: _146  and  _148
REMARK   54  A    between atoms: _148  and  _149
REMARK   55  A    between atoms: _148  and  _151
REMARK   56  A    between atoms: _151  and  _152
REMARK   57  A    between atoms: _155  and  _157
REMARK   58  A    between atoms: _157  and  _158
REMARK   59  A    between atoms: _157  and  _160
REMARK   60  A    between atoms: _160  and  _161
REMARK   61  A    between atoms: _164  and  _166
REMARK   62  A    between atoms: _166  and  _167
REMARK   63  A    between atoms: _166  and  _169
REMARK   64  A    between atoms: _169  and  _170
REMARK   65  A    between atoms: _172  and  _174
REMARK   66  A    between atoms: _174  and  _175
REMARK   67  A    between atoms: _174  and  _177
REMARK   68  A    between atoms: _177  and  _178
REMARK   69  A    between atoms: _181  and  _183
REMARK   70  A    between atoms: _183  and  _184
REMARK   71  A    between atoms: _183  and  _186
REMARK   72  A    between atoms: _186  and  _187
REMARK   73  A    between atoms: _189  and  _191
REMARK   74  A    between atoms: _191  and  _192
REMARK   75  A    between atoms: _196  and  _197
REMARK   76  A    between atoms: _202  and  _204
REMARK   77  A    between atoms: _204  and  _205
REMARK   78  A    between atoms: _207  and  _209
REMARK   79  A    between atoms: _209  and  _210
REMARK   80  A    between atoms: _209  and  _212
REMARK   81  A    between atoms: _212  and  _213
REMARK   82  A    between atoms: _218  and  _219
REMARK   83  A    between atoms: _221  and  _223
REMARK   84  A    between atoms: _223  and  _224
REMARK   85  A    between atoms: _223  and  _226
REMARK   86  A    between atoms: _226  and  _227
REMARK   87  A    between atoms: _232  and  _233
REMARK   88  A    between atoms: _236  and  _237
REMARK   89  A    between atoms: _242  and  _244
REMARK   90  A    between atoms: _244  and  _245
REMARK   91  A    between atoms: _244  and  _247
REMARK   92  A    between atoms: _247  and  _248
REMARK   93  A    between atoms: _252  and  ZN_299
REMARK   94  A    between atoms: _253  and  _255
REMARK   95  A    between atoms: _255  and  _256
REMARK   96  A    between atoms: _259  and  _261
REMARK   97  A    between atoms: _261  and  _262
REMARK   98  A    between atoms: _261  and  _264
REMARK   99  A    between atoms: _264  and  _265
REMARK  100  A    between atoms: _270  and  _271
REMARK  101  A    between atoms: _273  and  _275
REMARK  102  A    between atoms: _275  and  _276
REMARK  103  A    between atoms: _275  and  _278
REMARK  104  A    between atoms: _278  and  _279
REMARK  105  A    between atoms: _279  and  _280
REMARK  106  A    between atoms: _280  and  _281
REMARK  107  A    between atoms: _281  and  _282
REMARK  108  A    between atoms: _286  and  _288
REMARK  109  A    between atoms: _288  and  _289
REMARK  110  A    between atoms: _288  and  _291
REMARK  111  A    between atoms: _291  and  _292
REMARK  112  A    between atoms: _292  and  _293
REMARK                            x       y       z     vdW  Elec       q    Type
REMARK                         _______ _______ _______ _____ _____    ______ ____
ROOT
ATOM      1  O   HOH     1       5.481  29.455  36.570  0.00  0.00    +0.000 OA
ENDROOT
TORSDOF 0
REMARK  Name = ../refined-set-2016/2qdt/2qdt_pocket.pdb
REMARK  112 active torsions:
REMARK  status: ('A' for Active; 'I' for Inactive)
REMARK    1  A    between atoms: _1  and  _3
REMARK    2  A    between atoms: _3  and  _4
REMARK    3  A    between atoms: _3  and  _6
REMARK    4  A    between atoms: _6  and  _7
REMARK    5  A    between atoms: _12  and  _13
REMARK    6  A    between atoms: _15  and  _17
REMARK    7  A    between atoms: _17  and  _18
REMARK    8  A    between atoms: _17  and  _20
REMARK    9  A    between atoms: _23  and  _25
REMARK   10  A    between atoms: _25  and  _26
REMARK   11  A    between atoms: _25  and  _28
REMARK   12  A    between atoms: _28  and  _29
REMARK   13  A    between atoms: _39  and  _41
REMARK   14  A    between atoms: _41  and  _42
REMARK   15  A    between atoms: _41  and  _44
REMARK   16  A    between atoms: _44  and  _45
REMARK   17  A    between atoms: _48  and  _50
REMARK   18  A    between atoms: _50  and  _51
REMARK   19  A    between atoms: _50  and  _53
REMARK   20  A    between atoms: _53  and  _54
REMARK   21  A    between atoms: _54  and  _55
REMARK   22  A    between atoms: _57  and  _59
REMARK   23  A    between atoms: _59  and  _60
REMARK   24  A    between atoms: _59  and  _62
REMARK   25  A    between atoms: _62  and  _63
REMARK   26  A    between atoms: _67  and  ZN_298
REMARK   27  A    between atoms: _68  and  _70
REMARK   28  A    between atoms: _70  and  _71
REMARK   29  A    between atoms: _70  and  _73
REMARK   30  A    between atoms: _73  and  _74
REMARK   31  A    between atoms: _75  and  ZN_298
REMARK   32  A    between atoms: _79  and  _81
REMARK   33  A    between atoms: _81  and  _82
REMARK   34  A    between atoms: _85  and  _87
REMARK   35  A    between atoms: _96  and  _97
REMARK   36  A    between atoms: _105  and  _107
REMARK   37  A    between atoms: _107  and  _108
REMARK   38  A    between atoms: _107  and  _110
REMARK   39  A    between atoms: _110  and  _111
REMARK   40  A    between atoms: _114  and  _116
REMARK   41  A    between atoms: _116  and  _117
REMARK   42  A    between atoms: _116  and  _119
REMARK   43  A    between atoms: _119  and  _120
REMARK   44  A    between atoms: _126  and  _128
REMARK   45  A    between atoms: _128  and  _129
REMARK   46  A    between atoms: _128  and  _131
REMARK   47  A    between atoms: _131  and  _132
REMARK   48  A    between atoms: _135  and  _137
REMARK   49  A    between atoms: _137  and  _138
REMARK   50  A    between atoms: _137  and  _140
REMARK   51  A    between atoms: _140  and  _141
REMARK   52  A    between atoms: _145  and  ZN_298
REMARK   53  A    between atoms: _146  and  _148
REMARK   54  A    between atoms: _148  and  _149
REMARK   55  A    between atoms: _148  and  _151
REMARK   56  A    between atoms: _151  and  _152
REMARK   57  A    between atoms: _155  and  _157
REMARK   58  A    between atoms: _157  and  _158
REMARK   59  A    between atoms: _157  and  _160
REMARK   60  A    between atoms: _160  and  _161
REMARK   61  A    between atoms: _164  and  _166
REMARK   62  A    between atoms: _166  and  _167
REMARK   63  A    between atoms: _166  and  _169
REMARK   64  A    between atoms: _169  and  _170
REMARK   65  A    between atoms: _172  and  _174
REMARK   66  A    between atoms: _174  and  _175
REMARK   67  A    between atoms: _174  and  _177
REMARK   68  A    between atoms: _177  and  _178
REMARK   69  A    between atoms: _181  and  _183
REMARK   70  A    between atoms: _183  and  _184
REMARK   71  A    between atoms: _183  and  _186
REMARK   72  A    between atoms: _186  and  _187
REMARK   73  A    between atoms: _189  and  _191
REMARK   74  A    between atoms: _191  and  _192
REMARK   75  A    between atoms: _196  and  _197
REMARK   76  A    between atoms: _202  and  _204
REMARK   77  A    between atoms: _204  and  _205
REMARK   78  A    between atoms: _207  and  _209
REMARK   79  A    between atoms: _209  and  _210
REMARK   80  A    between atoms: _209  and  _212
REMARK   81  A    between atoms: _212  and  _213
REMARK   82  A    between atoms: _218  and  _219
REMARK   83  A    between atoms: _221  and  _223
REMARK   84  A    between atoms: _223  and  _224
REMARK   85  A    between atoms: _223  and  _226
REMARK   86  A    between atoms: _226  and  _227
REMARK   87  A    between atoms: _232  and  _233
REMARK   88  A    between atoms: _236  and  _237
REMARK   89  A    between atoms: _242  and  _244
REMARK   90  A    between atoms: _244  and  _245
REMARK   91  A    between atoms: _244  and  _247
REMARK   92  A    between atoms: _247  and  _248
REMARK   93  A    between atoms: _252  and  ZN_299
REMARK   94  A    between atoms: _253  and  _255
REMARK   95  A    between atoms: _255  and  _256
REMARK   96  A    between atoms: _259  and  _261
REMARK   97  A    between atoms: _261  and  _262
REMARK   98  A    between atoms: _261  and  _264
REMARK   99  A    between atoms: _264  and  _265
REMARK  100  A    between atoms: _270  and  _271
REMARK  101  A    between atoms: _273  and  _275
REMARK  102  A    between atoms: _275  and  _276
REMARK  103  A    between atoms: _275  and  _278
REMARK  104  A    between atoms: _278  and  _279
REMARK  105  A    between atoms: _279  and  _280
REMARK  106  A    between atoms: _280  and  _281
REMARK  107  A    between atoms: _281  and  _282
REMARK  108  A    between atoms: _286  and  _288
REMARK  109  A    between atoms: _288  and  _289
REMARK  110  A    between atoms: _288  and  _291
REMARK  111  A    between atoms: _291  and  _292
REMARK  112  A    between atoms: _292  and  _293
REMARK                            x       y       z     vdW  Elec       q    Type
REMARK                         _______ _______ _______ _____ _____    ______ ____
ROOT
ATOM      1  O   HOH     1      10.632  28.098  38.204  0.00  0.00    +0.000 OA
ENDROOT
TORSDOF 0
REMARK  Name = ../refined-set-2016/2qdt/2qdt_pocket.pdb
REMARK  112 active torsions:
REMARK  status: ('A' for Active; 'I' for Inactive)
REMARK    1  A    between atoms: _1  and  _3
REMARK    2  A    between atoms: _3  and  _4
REMARK    3  A    between atoms: _3  and  _6
REMARK    4  A    between atoms: _6  and  _7
REMARK    5  A    between atoms: _12  and  _13
REMARK    6  A    between atoms: _15  and  _17
REMARK    7  A    between atoms: _17  and  _18
REMARK    8  A    between atoms: _17  and  _20
REMARK    9  A    between atoms: _23  and  _25
REMARK   10  A    between atoms: _25  and  _26
REMARK   11  A    between atoms: _25  and  _28
REMARK   12  A    between atoms: _28  and  _29
REMARK   13  A    between atoms: _39  and  _41
REMARK   14  A    between atoms: _41  and  _42
REMARK   15  A    between atoms: _41  and  _44
REMARK   16  A    between atoms: _44  and  _45
REMARK   17  A    between atoms: _48  and  _50
REMARK   18  A    between atoms: _50  and  _51
REMARK   19  A    between atoms: _50  and  _53
REMARK   20  A    between atoms: _53  and  _54
REMARK   21  A    between atoms: _54  and  _55
REMARK   22  A    between atoms: _57  and  _59
REMARK   23  A    between atoms: _59  and  _60
REMARK   24  A    between atoms: _59  and  _62
REMARK   25  A    between atoms: _62  and  _63
REMARK   26  A    between atoms: _67  and  ZN_298
REMARK   27  A    between atoms: _68  and  _70
REMARK   28  A    between atoms: _70  and  _71
REMARK   29  A    between atoms: _70  and  _73
REMARK   30  A    between atoms: _73  and  _74
REMARK   31  A    between atoms: _75  and  ZN_298
REMARK   32  A    between atoms: _79  and  _81
REMARK   33  A    between atoms: _81  and  _82
REMARK   34  A    between atoms: _85  and  _87
REMARK   35  A    between atoms: _96  and  _97
REMARK   36  A    between atoms: _105  and  _107
REMARK   37  A    between atoms: _107  and  _108
REMARK   38  A    between atoms: _107  and  _110
REMARK   39  A    between atoms: _110  and  _111
REMARK   40  A    between atoms: _114  and  _116
REMARK   41  A    between atoms: _116  and  _117
REMARK   42  A    between atoms: _116  and  _119
REMARK   43  A    between atoms: _119  and  _120
REMARK   44  A    between atoms: _126  and  _128
REMARK   45  A    between atoms: _128  and  _129
REMARK   46  A    between atoms: _128  and  _131
REMARK   47  A    between atoms: _131  and  _132
REMARK   48  A    between atoms: _135  and  _137
REMARK   49  A    between atoms: _137  and  _138
REMARK   50  A    between atoms: _137  and  _140
REMARK   51  A    between atoms: _140  and  _141
REMARK   52  A    between atoms: _145  and  ZN_298
REMARK   53  A    between atoms: _146  and  _148
REMARK   54  A    between atoms: _148  and  _149
REMARK   55  A    between atoms: _148  and  _151
REMARK   56  A    between atoms: _151  and  _152
REMARK   57  A    between atoms: _155  and  _157
REMARK   58  A    between atoms: _157  and  _158
REMARK   59  A    between atoms: _157  and  _160
REMARK   60  A    between atoms: _160  and  _161
REMARK   61  A    between atoms: _164  and  _166
REMARK   62  A    between atoms: _166  and  _167
REMARK   63  A    between atoms: _166  and  _169
REMARK   64  A    between atoms: _169  and  _170
REMARK   65  A    between atoms: _172  and  _174
REMARK   66  A    between atoms: _174  and  _175
REMARK   67  A    between atoms: _174  and  _177
REMARK   68  A    between atoms: _177  and  _178
REMARK   69  A    between atoms: _181  and  _183
REMARK   70  A    between atoms: _183  and  _184
REMARK   71  A    between atoms: _183  and  _186
REMARK   72  A    between atoms: _186  and  _187
REMARK   73  A    between atoms: _189  and  _191
REMARK   74  A    between atoms: _191  and  _192
REMARK   75  A    between atoms: _196  and  _197
REMARK   76  A    between atoms: _202  and  _204
REMARK   77  A    between atoms: _204  and  _205
REMARK   78  A    between atoms: _207  and  _209
REMARK   79  A    between atoms: _209  and  _210
REMARK   80  A    between atoms: _209  and  _212
REMARK   81  A    between atoms: _212  and  _213
REMARK   82  A    between atoms: _218  and  _219
REMARK   83  A    between atoms: _221  and  _223
REMARK   84  A    between atoms: _223  and  _224
REMARK   85  A    between atoms: _223  and  _226
REMARK   86  A    between atoms: _226  and  _227
REMARK   87  A    between atoms: _232  and  _233
REMARK   88  A    between atoms: _236  and  _237
REMARK   89  A    between atoms: _242  and  _244
REMARK   90  A    between atoms: _244  and  _245
REMARK   91  A    between atoms: _244  and  _247
REMARK   92  A    between atoms: _247  and  _248
REMARK   93  A    between atoms: _252  and  ZN_299
REMARK   94  A    between atoms: _253  and  _255
REMARK   95  A    between atoms: _255  and  _256
REMARK   96  A    between atoms: _259  and  _261
REMARK   97  A    between atoms: _261  and  _262
REMARK   98  A    between atoms: _261  and  _264
REMARK   99  A    between atoms: _264  and  _265
REMARK  100  A    between atoms: _270  and  _271
REMARK  101  A    between atoms: _273  and  _275
REMARK  102  A    between atoms: _275  and  _276
REMARK  103  A    between atoms: _275  and  _278
REMARK  104  A    between atoms: _278  and  _279
REMARK  105  A    between atoms: _279  and  _280
REMARK  106  A    between atoms: _280  and  _281
REMARK  107  A    between atoms: _281  and  _282
REMARK  108  A    between atoms: _286  and  _288
REMARK  109  A    between atoms: _288  and  _289
REMARK  110  A    between atoms: _288  and  _291
REMARK  111  A    between atoms: _291  and  _292
REMARK  112  A    between atoms: _292  and  _293
REMARK                            x       y       z     vdW  Elec       q    Type
REMARK                         _______ _______ _______ _____ _____    ______ ____
ROOT
ATOM      1  O   HOH     1      10.861  32.343  41.857  0.00  0.00    +0.000 OA
ENDROOT
TORSDOF 0
REMARK  Name = ../refined-set-2016/2qdt/2qdt_pocket.pdb
REMARK  112 active torsions:
REMARK  status: ('A' for Active; 'I' for Inactive)
REMARK    1  A    between atoms: _1  and  _3
REMARK    2  A    between atoms: _3  and  _4
REMARK    3  A    between atoms: _3  and  _6
REMARK    4  A    between atoms: _6  and  _7
REMARK    5  A    between atoms: _12  and  _13
REMARK    6  A    between atoms: _15  and  _17
REMARK    7  A    between atoms: _17  and  _18
REMARK    8  A    between atoms: _17  and  _20
REMARK    9  A    between atoms: _23  and  _25
REMARK   10  A    between atoms: _25  and  _26
REMARK   11  A    between atoms: _25  and  _28
REMARK   12  A    between atoms: _28  and  _29
REMARK   13  A    between atoms: _39  and  _41
REMARK   14  A    between atoms: _41  and  _42
REMARK   15  A    between atoms: _41  and  _44
REMARK   16  A    between atoms: _44  and  _45
REMARK   17  A    between atoms: _48  and  _50
REMARK   18  A    between atoms: _50  and  _51
REMARK   19  A    between atoms: _50  and  _53
REMARK   20  A    between atoms: _53  and  _54
REMARK   21  A    between atoms: _54  and  _55
REMARK   22  A    between atoms: _57  and  _59
REMARK   23  A    between atoms: _59  and  _60
REMARK   24  A    between atoms: _59  and  _62
REMARK   25  A    between atoms: _62  and  _63
REMARK   26  A    between atoms: _67  and  ZN_298
REMARK   27  A    between atoms: _68  and  _70
REMARK   28  A    between atoms: _70  and  _71
REMARK   29  A    between atoms: _70  and  _73
REMARK   30  A    between atoms: _73  and  _74
REMARK   31  A    between atoms: _75  and  ZN_298
REMARK   32  A    between atoms: _79  and  _81
REMARK   33  A    between atoms: _81  and  _82
REMARK   34  A    between atoms: _85  and  _87
REMARK   35  A    between atoms: _96  and  _97
REMARK   36  A    between atoms: _105  and  _107
REMARK   37  A    between atoms: _107  and  _108
REMARK   38  A    between atoms: _107  and  _110
REMARK   39  A    between atoms: _110  and  _111
REMARK   40  A    between atoms: _114  and  _116
REMARK   41  A    between atoms: _116  and  _117
REMARK   42  A    between atoms: _116  and  _119
REMARK   43  A    between atoms: _119  and  _120
REMARK   44  A    between atoms: _126  and  _128
REMARK   45  A    between atoms: _128  and  _129
REMARK   46  A    between atoms: _128  and  _131
REMARK   47  A    between atoms: _131  and  _132
REMARK   48  A    between atoms: _135  and  _137
REMARK   49  A    between atoms: _137  and  _138
REMARK   50  A    between atoms: _137  and  _140
REMARK   51  A    between atoms: _140  and  _141
REMARK   52  A    between atoms: _145  and  ZN_298
REMARK   53  A    between atoms: _146  and  _148
REMARK   54  A    between atoms: _148  and  _149
REMARK   55  A    between atoms: _148  and  _151
REMARK   56  A    between atoms: _151  and  _152
REMARK   57  A    between atoms: _155  and  _157
REMARK   58  A    between atoms: _157  and  _158
REMARK   59  A    between atoms: _157  and  _160
REMARK   60  A    between atoms: _160  and  _161
REMARK   61  A    between atoms: _164  and  _166
REMARK   62  A    between atoms: _166  and  _167
REMARK   63  A    between atoms: _166  and  _169
REMARK   64  A    between atoms: _169  and  _170
REMARK   65  A    between atoms: _172  and  _174
REMARK   66  A    between atoms: _174  and  _175
REMARK   67  A    between atoms: _174  and  _177
REMARK   68  A    between atoms: _177  and  _178
REMARK   69  A    between atoms: _181  and  _183
REMARK   70  A    between atoms: _183  and  _184
REMARK   71  A    between atoms: _183  and  _186
REMARK   72  A    between atoms: _186  and  _187
REMARK   73  A    between atoms: _189  and  _191
REMARK   74  A    between atoms: _191  and  _192
REMARK   75  A    between atoms: _196  and  _197
REMARK   76  A    between atoms: _202  and  _204
REMARK   77  A    between atoms: _204  and  _205
REMARK   78  A    between atoms: _207  and  _209
REMARK   79  A    between atoms: _209  and  _210
REMARK   80  A    between atoms: _209  and  _212
REMARK   81  A    between atoms: _212  and  _213
REMARK   82  A    between atoms: _218  and  _219
REMARK   83  A    between atoms: _221  and  _223
REMARK   84  A    between atoms: _223  and  _224
REMARK   85  A    between atoms: _223  and  _226
REMARK   86  A    between atoms: _226  and  _227
REMARK   87  A    between atoms: _232  and  _233
REMARK   88  A    between atoms: _236  and  _237
REMARK   89  A    between atoms: _242  and  _244
REMARK   90  A    between atoms: _244  and  _245
REMARK   91  A    between atoms: _244  and  _247
REMARK   92  A    between atoms: _247  and  _248
REMARK   93  A    between atoms: _252  and  ZN_299
REMARK   94  A    between atoms: _253  and  _255
REMARK   95  A    between atoms: _255  and  _256
REMARK   96  A    between atoms: _259  and  _261
REMARK   97  A    between atoms: _261  and  _262
REMARK   98  A    between atoms: _261  and  _264
REMARK   99  A    between atoms: _264  and  _265
REMARK  100  A    between atoms: _270  and  _271
REMARK  101  A    between atoms: _273  and  _275
REMARK  102  A    between atoms: _275  and  _276
REMARK  103  A    between atoms: _275  and  _278
REMARK  104  A    between atoms: _278  and  _279
REMARK  105  A    between atoms: _279  and  _280
REMARK  106  A    between atoms: _280  and  _281
REMARK  107  A    between atoms: _281  and  _282
REMARK  108  A    between atoms: _286  and  _288
REMARK  109  A    between atoms: _288  and  _289
REMARK  110  A    between atoms: _288  and  _291
REMARK  111  A    between atoms: _291  and  _292
REMARK  112  A    between atoms: _292  and  _293
REMARK                            x       y       z     vdW  Elec       q    Type
REMARK                         _______ _______ _______ _____ _____    ______ ____
ROOT
ATOM      1  O   HOH     1      15.622  28.181  42.858  0.00  0.00    +0.000 OA
ENDROOT
TORSDOF 0
