REMARK  Name = ../refined-set-2016/4uyf/4uyf_pocket.pdb
REMARK  132 active torsions:
REMARK  status: ('A' for Active; 'I' for Inactive)
REMARK    1  A    between atoms: _1  and  _3
REMARK    2  A    between atoms: _3  and  _4
REMARK    3  A    between atoms: _3  and  _6
REMARK    4  A    between atoms: _6  and  _7
REMARK    5  A    between atoms: _13  and  _15
REMARK    6  A    between atoms: _15  and  _16
REMARK    7  A    between atoms: _19  and  _21
REMARK    8  A    between atoms: _21  and  _22
REMARK    9  A    between atoms: _21  and  _24
REMARK   10  A    between atoms: _24  and  _25
REMARK   11  A    between atoms: _36  and  _37
REMARK   12  A    between atoms: _42  and  _44
REMARK   13  A    between atoms: _44  and  _45
REMARK   14  A    between atoms: _44  and  _47
REMARK   15  A    between atoms: _47  and  _48
REMARK   16  A    between atoms: _54  and  _56
REMARK   17  A    between atoms: _56  and  _57
REMARK   18  A    between atoms: _56  and  _59
REMARK   19  A    between atoms: _59  and  _60
REMARK   20  A    between atoms: _60  and  _61
REMARK   21  A    between atoms: _61  and  _62
REMARK   22  A    between atoms: _71  and  _73
REMARK   23  A    between atoms: _73  and  _74
REMARK   24  A    between atoms: _73  and  _76
REMARK   25  A    between atoms: _76  and  _77
REMARK   26  A    between atoms: _77  and  _78
REMARK   27  A    between atoms: _84  and  _85
REMARK   28  A    between atoms: _90  and  _92
REMARK   29  A    between atoms: _92  and  _93
REMARK   30  A    between atoms: _92  and  _95
REMARK   31  A    between atoms: _98  and  _100
REMARK   32  A    between atoms: _100  and  _101
REMARK   33  A    between atoms: _100  and  _103
REMARK   34  A    between atoms: _103  and  _104
REMARK   35  A    between atoms: _107  and  _109
REMARK   36  A    between atoms: _109  and  _110
REMARK   37  A    between atoms: _113  and  _115
REMARK   38  A    between atoms: _115  and  _116
REMARK   39  A    between atoms: _115  and  _118
REMARK   40  A    between atoms: _118  and  _119
REMARK   41  A    between atoms: _119  and  _120
REMARK   42  A    between atoms: _120  and  _121
REMARK   43  A    between atoms: _121  and  _122
REMARK   44  A    between atoms: _126  and  _128
REMARK   45  A    between atoms: _128  and  _129
REMARK   46  A    between atoms: _128  and  _131
REMARK   47  A    between atoms: _131  and  _132
REMARK   48  A    between atoms: _135  and  _137
REMARK   49  A    between atoms: _137  and  _138
REMARK   50  A    between atoms: _137  and  _140
REMARK   51  A    between atoms: _140  and  _141
REMARK   52  A    between atoms: _144  and  _146
REMARK   53  A    between atoms: _146  and  _147
REMARK   54  A    between atoms: _146  and  _149
REMARK   55  A    between atoms: _149  and  _150
REMARK   56  A    between atoms: _155  and  _156
REMARK   57  A    between atoms: _158  and  _160
REMARK   58  A    between atoms: _160  and  _161
REMARK   59  A    between atoms: _160  and  _163
REMARK   60  A    between atoms: _163  and  _164
REMARK   61  A    between atoms: _167  and  _169
REMARK   62  A    between atoms: _169  and  _170
REMARK   63  A    between atoms: _169  and  _172
REMARK   64  A    between atoms: _172  and  _173
REMARK   65  A    between atoms: _173  and  _174
REMARK   66  A    between atoms: _176  and  _178
REMARK   67  A    between atoms: _178  and  _179
REMARK   68  A    between atoms: _178  and  _181
REMARK   69  A    between atoms: _181  and  _182
REMARK   70  A    between atoms: _185  and  _187
REMARK   71  A    between atoms: _187  and  _188
REMARK   72  A    between atoms: _187  and  _190
REMARK   73  A    between atoms: _190  and  _191
REMARK   74  A    between atoms: _191  and  _192
REMARK   75  A    between atoms: _194  and  _196
REMARK   76  A    between atoms: _196  and  _197
REMARK   77  A    between atoms: _196  and  _199
REMARK   78  A    between atoms: _199  and  _200
REMARK   79  A    between atoms: _206  and  _208
REMARK   80  A    between atoms: _208  and  _209
REMARK   81  A    between atoms: _208  and  _211
REMARK   82  A    between atoms: _211  and  _212
REMARK   83  A    between atoms: _217  and  _219
REMARK   84  A    between atoms: _219  and  _220
REMARK   85  A    between atoms: _219  and  _222
REMARK   86  A    between atoms: _224  and  _226
REMARK   87  A    between atoms: _226  and  _227
REMARK   88  A    between atoms: _226  and  _229
REMARK   89  A    between atoms: _229  and  _230
REMARK   90  A    between atoms: _235  and  _236
REMARK   91  A    between atoms: _238  and  _240
REMARK   92  A    between atoms: _240  and  _241
REMARK   93  A    between atoms: _240  and  _243
REMARK   94  A    between atoms: _243  and  _244
REMARK   95  A    between atoms: _247  and  _249
REMARK   96  A    between atoms: _249  and  _250
REMARK   97  A    between atoms: _249  and  _252
REMARK   98  A    between atoms: _252  and  _253
REMARK   99  A    between atoms: _258  and  _259
REMARK  100  A    between atoms: _261  and  _263
REMARK  101  A    between atoms: _263  and  _264
REMARK  102  A    between atoms: _263  and  _266
REMARK  103  A    between atoms: _266  and  _267
REMARK  104  A    between atoms: _272  and  _274
REMARK  105  A    between atoms: _274  and  _275
REMARK  106  A    between atoms: _274  and  _277
REMARK  107  A    between atoms: _277  and  _278
REMARK  108  A    between atoms: _278  and  _279
REMARK  109  A    between atoms: _279  and  _280
REMARK  110  A    between atoms: _280  and  _281
REMARK  111  A    between atoms: _285  and  _287
REMARK  112  A    between atoms: _287  and  _288
REMARK  113  A    between atoms: _287  and  _290
REMARK  114  A    between atoms: _290  and  _291
REMARK  115  A    between atoms: _294  and  _296
REMARK  116  A    between atoms: _296  and  _297
REMARK  117  A    between atoms: _296  and  _299
REMARK  118  A    between atoms: _299  and  _300
REMARK  119  A    between atoms: _303  and  _305
REMARK  120  A    between atoms: _305  and  _306
REMARK  121  A    between atoms: _305  and  _308
REMARK  122  A    between atoms: _308  and  _309
REMARK  123  A    between atoms: _312  and  _314
REMARK  124  A    between atoms: _314  and  _315
REMARK  125  A    between atoms: _314  and  _317
REMARK  126  A    between atoms: _320  and  _322
REMARK  127  A    between atoms: _322  and  _323
REMARK  128  A    between atoms: _322  and  _325
REMARK  129  A    between atoms: _325  and  _326
REMARK  130  A    between atoms: _326  and  _327
REMARK  131  A    between atoms: _329  and  _331
REMARK  132  A    between atoms: _331  and  _332
REMARK                            x       y       z     vdW  Elec       q    Type
REMARK                         _______ _______ _______ _____ _____    ______ ____
ROOT
ATOM      1  CA  ARG A   6      11.704   8.868  -3.840  0.00  0.00    +0.149 C 
ENDROOT
BRANCH   1   2
ATOM      2  C   ARG A   6      11.306   7.545  -4.496  0.00  0.00    +0.241 C 
ATOM      3  O   ARG A   6      10.443   6.835  -3.975  0.00  0.00    -0.273 OA
ATOM      4  N   GLN A   7      11.903   7.243  -5.647  0.00  0.00    -0.297 N 
ATOM      5  H   GLN A   7      12.566   7.933  -6.055  0.00  0.00    +0.150 HD
BRANCH   4   6
ATOM      6  CA  GLN A   7      11.673   5.988  -6.367  0.00  0.00    +0.149 C 
BRANCH   6   7
ATOM      7  C   GLN A   7      13.023   5.349  -6.663  0.00  0.00    +0.244 C 
ATOM      8  O   GLN A   7      14.047   6.024  -6.610  0.00  0.00    -0.273 OA
ATOM      9  N   PRO A   8      13.036   4.050  -6.996  0.00  0.00    -0.272 N 
ATOM     10  CD  PRO A   8      11.942   3.066  -6.893  0.00  0.00    +0.094 C 
ATOM     11  CG  PRO A   8      12.655   1.744  -6.972  0.00  0.00    +0.024 C 
ATOM     12  CB  PRO A   8      13.859   2.005  -7.800  0.00  0.00    +0.031 C 
ATOM     13  CA  PRO A   8      14.291   3.426  -7.413  0.00  0.00    +0.152 C 
BRANCH  13  14
ATOM     14  C   PRO A   8      14.934   4.129  -8.610  0.00  0.00    +0.241 C 
ATOM     15  N   VAL A   9      16.260   4.095  -8.676  0.00  0.00    -0.297 N 
ATOM     16  H   VAL A   9      16.797   3.726  -7.865  0.00  0.00    +0.150 HD
ATOM     17  O   PRO A   8      14.229   4.708  -9.449  0.00  0.00    -0.273 OA
BRANCH  15  18
ATOM     18  CA  VAL A   9      16.986   4.562  -9.857  0.00  0.00    +0.149 C 
BRANCH  18  19
ATOM     19  C   VAL A   9      16.514   3.762 -11.071  0.00  0.00    +0.241 C 
ATOM     20  O   VAL A   9      16.604   2.536 -11.089  0.00  0.00    -0.273 OA
ATOM     21  N   ASP A  10      15.993   4.472 -12.070  0.00  0.00    -0.297 N 
ATOM     22  H   ASP A  10      15.937   5.505 -11.966  0.00  0.00    +0.150 HD
BRANCH  21  23
ATOM     23  CA  ASP A  10      15.496   3.869 -13.307  0.00  0.00    +0.160 C 
BRANCH  23  24
ATOM     24  C   ASP A  10      16.574   4.031 -14.379  0.00  0.00    +0.241 C 
ATOM     25  N   ALA A  11      17.360   2.975 -14.585  0.00  0.00    -0.298 N 
ATOM     26  H   ALA A  11      17.145   2.083 -14.096  0.00  0.00    +0.150 HD
ATOM     27  O   ASP A  10      16.696   5.089 -15.000  0.00  0.00    -0.273 OA
BRANCH  25  28
ATOM     28  CA  ALA A  11      18.517   3.035 -15.480  0.00  0.00    +0.137 C 
ATOM     29  CB  ALA A  11      19.405   1.811 -15.292  0.00  0.00    +0.030 C 
BRANCH  28  30
ATOM     30  C   ALA A  11      18.128   3.201 -16.953  0.00  0.00    +0.227 C 
ATOM     31  O   ALA A  11      18.910   3.724 -17.741  0.00  0.00    -0.286 OA
ENDBRANCH  28  30
ENDBRANCH  25  28
ENDBRANCH  23  24
BRANCH  23  32
ATOM     32  CB  ASP A  10      14.185   4.552 -13.718  0.00  0.00    +0.143 C 
BRANCH  32  33
ATOM     33  CG  ASP A  10      13.555   3.942 -14.962  0.00  0.00    +0.367 C 
ATOM     34  OD2 ASP A  10      12.351   4.203 -15.188  0.00  0.00    -0.246 OA
ATOM     35  OD1 ASP A  10      14.248   3.223 -15.716  0.00  0.00    -0.246 OA
ENDBRANCH  32  33
ENDBRANCH  23  32
ENDBRANCH  21  23
ENDBRANCH  18  19
BRANCH  18  36
ATOM     36  CB  VAL A   9      18.520   4.409  -9.692  0.00  0.00    +0.027 C 
ATOM     37  CG2 VAL A   9      19.029   5.307  -8.569  0.00  0.00    +0.002 C 
ATOM     38  CG1 VAL A   9      19.242   4.729 -10.994  0.00  0.00    +0.002 C 
ENDBRANCH  18  36
ENDBRANCH  15  18
ENDBRANCH  13  14
ENDBRANCH   6   7
BRANCH   6  39
ATOM     39  CB  GLN A   7      10.954   6.251  -7.693  0.00  0.00    +0.039 C 
BRANCH  39  40
ATOM     40  CG  GLN A   7       9.444   6.402  -7.601  0.00  0.00    +0.087 C 
BRANCH  40  41
ATOM     41  CD  GLN A   7       8.808   6.697  -8.952  0.00  0.00    +0.219 C 
ATOM     42  NE2 GLN A   7       7.632   6.126  -9.186  0.00  0.00    -0.329 N 
ATOM     43 HE21 GLN A   7       7.196   5.519  -8.463  0.00  0.00    +0.145 HD
ATOM     44 HE22 GLN A   7       7.147   6.286 -10.092  0.00  0.00    +0.145 HD
ATOM     45  OE1 GLN A   7       9.368   7.426  -9.777  0.00  0.00    -0.275 OA
ENDBRANCH  40  41
ENDBRANCH  39  40
ENDBRANCH   6  39
ENDBRANCH   4   6
ENDBRANCH   1   2
BRANCH   1  48
ATOM     46  C   PHE A   5      14.137   8.827  -3.757  0.00  0.00    +0.241 C 
ATOM     47  O   PHE A   5      14.117   7.862  -3.008  0.00  0.00    -0.273 OA
ATOM     48  N   ARG A   6      13.023   9.359  -4.257  0.00  0.00    -0.297 N 
ATOM     49  H   ARG A   6      13.088  10.131  -4.951  0.00  0.00    +0.150 HD
BRANCH  46  50
ATOM     50  CA  PHE A   5      15.476   9.465  -4.135  0.00  0.00    +0.153 C 
BRANCH  50  52
ATOM     51  C   PRO A   4      15.702  10.543  -6.331  0.00  0.00    +0.241 C 
ATOM     52  N   PHE A   5      15.361  10.604  -5.045  0.00  0.00    -0.297 N 
ATOM     53  H   PHE A   5      14.996  11.503  -4.671  0.00  0.00    +0.150 HD
ATOM     54  O   PRO A   4      16.021   9.491  -6.901  0.00  0.00    -0.273 OA
BRANCH  51  60
ATOM     55  C   TRP A   3      13.616  12.827  -6.331  0.00  0.00    +0.244 C 
ATOM     56  N   PRO A   4      14.957  12.951  -6.436  0.00  0.00    -0.272 N 
ATOM     57  CD  PRO A   4      15.902  13.997  -6.009  0.00  0.00    +0.094 C 
ATOM     58  CG  PRO A   4      16.979  13.892  -7.040  0.00  0.00    +0.024 C 
ATOM     59  CB  PRO A   4      17.105  12.421  -7.269  0.00  0.00    +0.031 C 
ATOM     60  CA  PRO A   4      15.677  11.862  -7.121  0.00  0.00    +0.152 C 
ATOM     61  O   TRP A   3      13.023  11.844  -6.777  0.00  0.00    -0.273 OA
BRANCH  55  62
ATOM     62  CA  TRP A   3      12.823  13.907  -5.599  0.00  0.00    +0.153 C 
BRANCH  62  65
ATOM     63  C   ALA A   2      13.914  13.722  -3.431  0.00  0.00    +0.241 C 
ATOM     64  O   ALA A   2      13.977  12.495  -3.531  0.00  0.00    -0.273 OA
ATOM     65  N   TRP A   3      13.477  14.498  -4.422  0.00  0.00    -0.297 N 
ATOM     66  H   TRP A   3      13.599  15.529  -4.363  0.00  0.00    +0.150 HD
BRANCH  63  67
ATOM     67  CA  ALA A   2      14.341  14.396  -2.131  0.00  0.00    +0.149 C 
ATOM     68  CB  ALA A   2      13.241  14.237  -1.087  0.00  0.00    +0.031 C 
BRANCH  67  70
ATOM     69  C   PHE A   1      15.909  16.159  -2.765  0.00  0.00    +0.239 C 
ATOM     70  N   ALA A   2      14.720  15.808  -2.276  0.00  0.00    -0.297 N 
ATOM     71  H   ALA A   2      14.047  16.548  -1.991  0.00  0.00    +0.150 HD
ATOM     72  O   PHE A   1      16.704  15.331  -3.217  0.00  0.00    -0.274 OA
BRANCH  69  73
ATOM     73  CA  PHE A   1      16.282  17.646  -2.756  0.00  0.00    +0.149 C 
BRANCH  73  74
ATOM     74  N   PHE A   1      15.290  18.483  -2.073  0.00  0.00    -0.238 NA
ATOM     75  H   PHE A   1      15.321  18.558  -1.036  0.00  0.00    +0.142 HD
ENDBRANCH  73  74
BRANCH  73  76
ATOM     76  CB  PHE A   1      17.668  17.797  -2.099  0.00  0.00    +0.053 C 
BRANCH  76  77
ATOM     77  CG  PHE A   1      18.304  19.165  -2.238  0.00  0.00    -0.020 A 
ATOM     78  CD2 PHE A   1      19.402  19.480  -1.450  0.00  0.00    -0.004 A 
ATOM     79  CE2 PHE A   1      20.028  20.709  -1.553  0.00  0.00    -0.000 A 
ATOM     80  CZ  PHE A   1      19.576  21.639  -2.470  0.00  0.00    -0.000 A 
ATOM     81  CE1 PHE A   1      18.492  21.337  -3.278  0.00  0.00    -0.000 A 
ATOM     82  CD1 PHE A   1      17.867  20.107  -3.170  0.00  0.00    -0.004 A 
ENDBRANCH  76  77
ENDBRANCH  73  76
ENDBRANCH  69  73
ENDBRANCH  67  70
ENDBRANCH  63  67
ENDBRANCH  62  65
BRANCH  62  83
ATOM     83  CB  TRP A   3      12.305  14.986  -6.558  0.00  0.00    +0.057 C 
BRANCH  83  84
ATOM     84  CG  TRP A   3      13.388  15.864  -7.108  0.00  0.00    -0.002 A 
ATOM     85  CD1 TRP A   3      13.881  17.043  -6.567  0.00  0.00    +0.068 A 
ATOM     86  NE1 TRP A   3      14.898  17.547  -7.334  0.00  0.00    -0.352 N 
ATOM     87  HE1 TRP A   3      15.422  18.421  -7.124  0.00  0.00    +0.166 HD
ATOM     88  CE2 TRP A   3      15.126  16.750  -8.402  0.00  0.00    +0.056 A 
ATOM     89  CZ2 TRP A   3      16.039  16.857  -9.433  0.00  0.00    +0.017 A 
ATOM     90  CH2 TRP A   3      16.034  15.846 -10.394  0.00  0.00    +0.001 A 
ATOM     91  CZ3 TRP A   3      15.144  14.767 -10.321  0.00  0.00    +0.000 A 
ATOM     92  CE3 TRP A   3      14.215  14.651  -9.288  0.00  0.00    +0.001 A 
ATOM     93  CD2 TRP A   3      14.191  15.627  -8.307  0.00  0.00    +0.013 A 
ENDBRANCH  83  84
ENDBRANCH  62  83
ENDBRANCH  55  62
ENDBRANCH  51  60
ENDBRANCH  50  52
BRANCH  50  94
ATOM     94  CB  PHE A   5      16.206   9.899  -2.861  0.00  0.00    +0.055 C 
BRANCH  94  95
ATOM     95  CG  PHE A   5      17.554  10.512  -3.115  0.00  0.00    -0.020 A 
ATOM     96  CD2 PHE A   5      17.711  11.887  -3.172  0.00  0.00    -0.004 A 
ATOM     97  CE2 PHE A   5      18.952  12.454  -3.416  0.00  0.00    -0.000 A 
ATOM     98  CZ  PHE A   5      20.062  11.643  -3.580  0.00  0.00    -0.000 A 
ATOM     99  CE1 PHE A   5      19.920  10.269  -3.518  0.00  0.00    -0.000 A 
ATOM    100  CD1 PHE A   5      18.678   9.705  -3.287  0.00  0.00    -0.004 A 
ENDBRANCH  94  95
ENDBRANCH  50  94
ENDBRANCH  46  50
ENDBRANCH   1  48
BRANCH   1 101
ATOM    101  CB  ARG A   6      10.624   9.921  -4.107  0.00  0.00    +0.033 C 
BRANCH 101 102
ATOM    102  CG  ARG A   6      10.640  11.083  -3.132  0.00  0.00    +0.045 C 
BRANCH 102 103
ATOM    103  CD  ARG A   6       9.591  12.113  -3.518  0.00  0.00    +0.174 C 
BRANCH 103 104
ATOM    104  NE  ARG A   6       9.689  13.318  -2.697  0.00  0.00    -0.265 N 
ATOM    105  HE  ARG A   6       9.974  13.201  -1.704  0.00  0.00    +0.259 HD
ATOM    106  CZ  ARG A   6       9.441  14.556  -3.124  0.00  0.00    +0.342 C 
ATOM    107  NH2 ARG A   6       9.561  15.575  -2.280  0.00  0.00    -0.292 N 
ATOM    108 HH21 ARG A   6       9.846  15.403  -1.295  0.00  0.00    +0.255 HD
ATOM    109 HH22 ARG A   6       9.369  16.544  -2.605  0.00  0.00    +0.255 HD
ATOM    110  NH1 ARG A   6       9.077  14.793  -4.384  0.00  0.00    -0.292 N 
ATOM    111 HH11 ARG A   6       8.888  15.767  -4.696  0.00  0.00    +0.255 HD
ATOM    112 HH12 ARG A   6       8.982  14.004  -5.055  0.00  0.00    +0.255 HD
ENDBRANCH 103 104
ENDBRANCH 102 103
ENDBRANCH 101 102
ENDBRANCH   1 101
TORSDOF 36
REMARK  Name = ../refined-set-2016/4uyf/4uyf_pocket.pdb
REMARK  132 active torsions:
REMARK  status: ('A' for Active; 'I' for Inactive)
REMARK    1  A    between atoms: _1  and  _3
REMARK    2  A    between atoms: _3  and  _4
REMARK    3  A    between atoms: _3  and  _6
REMARK    4  A    between atoms: _6  and  _7
REMARK    5  A    between atoms: _13  and  _15
REMARK    6  A    between atoms: _15  and  _16
REMARK    7  A    between atoms: _19  and  _21
REMARK    8  A    between atoms: _21  and  _22
REMARK    9  A    between atoms: _21  and  _24
REMARK   10  A    between atoms: _24  and  _25
REMARK   11  A    between atoms: _36  and  _37
REMARK   12  A    between atoms: _42  and  _44
REMARK   13  A    between atoms: _44  and  _45
REMARK   14  A    between atoms: _44  and  _47
REMARK   15  A    between atoms: _47  and  _48
REMARK   16  A    between atoms: _54  and  _56
REMARK   17  A    between atoms: _56  and  _57
REMARK   18  A    between atoms: _56  and  _59
REMARK   19  A    between atoms: _59  and  _60
REMARK   20  A    between atoms: _60  and  _61
REMARK   21  A    between atoms: _61  and  _62
REMARK   22  A    between atoms: _71  and  _73
REMARK   23  A    between atoms: _73  and  _74
REMARK   24  A    between atoms: _73  and  _76
REMARK   25  A    between atoms: _76  and  _77
REMARK   26  A    between atoms: _77  and  _78
REMARK   27  A    between atoms: _84  and  _85
REMARK   28  A    between atoms: _90  and  _92
REMARK   29  A    between atoms: _92  and  _93
REMARK   30  A    between atoms: _92  and  _95
REMARK   31  A    between atoms: _98  and  _100
REMARK   32  A    between atoms: _100  and  _101
REMARK   33  A    between atoms: _100  and  _103
REMARK   34  A    between atoms: _103  and  _104
REMARK   35  A    between atoms: _107  and  _109
REMARK   36  A    between atoms: _109  and  _110
REMARK   37  A    between atoms: _113  and  _115
REMARK   38  A    between atoms: _115  and  _116
REMARK   39  A    between atoms: _115  and  _118
REMARK   40  A    between atoms: _118  and  _119
REMARK   41  A    between atoms: _119  and  _120
REMARK   42  A    between atoms: _120  and  _121
REMARK   43  A    between atoms: _121  and  _122
REMARK   44  A    between atoms: _126  and  _128
REMARK   45  A    between atoms: _128  and  _129
REMARK   46  A    between atoms: _128  and  _131
REMARK   47  A    between atoms: _131  and  _132
REMARK   48  A    between atoms: _135  and  _137
REMARK   49  A    between atoms: _137  and  _138
REMARK   50  A    between atoms: _137  and  _140
REMARK   51  A    between atoms: _140  and  _141
REMARK   52  A    between atoms: _144  and  _146
REMARK   53  A    between atoms: _146  and  _147
REMARK   54  A    between atoms: _146  and  _149
REMARK   55  A    between atoms: _149  and  _150
REMARK   56  A    between atoms: _155  and  _156
REMARK   57  A    between atoms: _158  and  _160
REMARK   58  A    between atoms: _160  and  _161
REMARK   59  A    between atoms: _160  and  _163
REMARK   60  A    between atoms: _163  and  _164
REMARK   61  A    between atoms: _167  and  _169
REMARK   62  A    between atoms: _169  and  _170
REMARK   63  A    between atoms: _169  and  _172
REMARK   64  A    between atoms: _172  and  _173
REMARK   65  A    between atoms: _173  and  _174
REMARK   66  A    between atoms: _176  and  _178
REMARK   67  A    between atoms: _178  and  _179
REMARK   68  A    between atoms: _178  and  _181
REMARK   69  A    between atoms: _181  and  _182
REMARK   70  A    between atoms: _185  and  _187
REMARK   71  A    between atoms: _187  and  _188
REMARK   72  A    between atoms: _187  and  _190
REMARK   73  A    between atoms: _190  and  _191
REMARK   74  A    between atoms: _191  and  _192
REMARK   75  A    between atoms: _194  and  _196
REMARK   76  A    between atoms: _196  and  _197
REMARK   77  A    between atoms: _196  and  _199
REMARK   78  A    between atoms: _199  and  _200
REMARK   79  A    between atoms: _206  and  _208
REMARK   80  A    between atoms: _208  and  _209
REMARK   81  A    between atoms: _208  and  _211
REMARK   82  A    between atoms: _211  and  _212
REMARK   83  A    between atoms: _217  and  _219
REMARK   84  A    between atoms: _219  and  _220
REMARK   85  A    between atoms: _219  and  _222
REMARK   86  A    between atoms: _224  and  _226
REMARK   87  A    between atoms: _226  and  _227
REMARK   88  A    between atoms: _226  and  _229
REMARK   89  A    between atoms: _229  and  _230
REMARK   90  A    between atoms: _235  and  _236
REMARK   91  A    between atoms: _238  and  _240
REMARK   92  A    between atoms: _240  and  _241
REMARK   93  A    between atoms: _240  and  _243
REMARK   94  A    between atoms: _243  and  _244
REMARK   95  A    between atoms: _247  and  _249
REMARK   96  A    between atoms: _249  and  _250
REMARK   97  A    between atoms: _249  and  _252
REMARK   98  A    between atoms: _252  and  _253
REMARK   99  A    between atoms: _258  and  _259
REMARK  100  A    between atoms: _261  and  _263
REMARK  101  A    between atoms: _263  and  _264
REMARK  102  A    between atoms: _263  and  _266
REMARK  103  A    between atoms: _266  and  _267
REMARK  104  A    between atoms: _272  and  _274
REMARK  105  A    between atoms: _274  and  _275
REMARK  106  A    between atoms: _274  and  _277
REMARK  107  A    between atoms: _277  and  _278
REMARK  108  A    between atoms: _278  and  _279
REMARK  109  A    between atoms: _279  and  _280
REMARK  110  A    between atoms: _280  and  _281
REMARK  111  A    between atoms: _285  and  _287
REMARK  112  A    between atoms: _287  and  _288
REMARK  113  A    between atoms: _287  and  _290
REMARK  114  A    between atoms: _290  and  _291
REMARK  115  A    between atoms: _294  and  _296
REMARK  116  A    between atoms: _296  and  _297
REMARK  117  A    between atoms: _296  and  _299
REMARK  118  A    between atoms: _299  and  _300
REMARK  119  A    between atoms: _303  and  _305
REMARK  120  A    between atoms: _305  and  _306
REMARK  121  A    between atoms: _305  and  _308
REMARK  122  A    between atoms: _308  and  _309
REMARK  123  A    between atoms: _312  and  _314
REMARK  124  A    between atoms: _314  and  _315
REMARK  125  A    between atoms: _314  and  _317
REMARK  126  A    between atoms: _320  and  _322
REMARK  127  A    between atoms: _322  and  _323
REMARK  128  A    between atoms: _322  and  _325
REMARK  129  A    between atoms: _325  and  _326
REMARK  130  A    between atoms: _326  and  _327
REMARK  131  A    between atoms: _329  and  _331
REMARK  132  A    between atoms: _331  and  _332
REMARK                            x       y       z     vdW  Elec       q    Type
REMARK                         _______ _______ _______ _____ _____    ______ ____
ROOT
ATOM      1  CA  LYS A   1      14.885   6.374 -18.040  0.00  0.00    +0.145 C 
ENDROOT
BRANCH   1   2
ATOM      2  C   LYS A   1      16.092   7.308 -18.080  0.00  0.00    +0.238 C 
ATOM      3  N   LEU A   2      17.100   7.014 -17.264  0.00  0.00    -0.298 N 
ATOM      4  H   LEU A   2      17.046   6.154 -16.681  0.00  0.00    +0.150 HD
ATOM      5  O   LYS A   1      16.114   8.269 -18.846  0.00  0.00    -0.274 OA
BRANCH   3   6
ATOM      6  CA  LEU A   2      18.284   7.870 -17.165  0.00  0.00    +0.137 C 
BRANCH   6   7
ATOM      7  C   LEU A   2      19.381   7.536 -18.177  0.00  0.00    +0.227 C 
ATOM      8  O   LEU A   2      20.364   8.271 -18.282  0.00  0.00    -0.286 OA
ENDBRANCH   6   7
BRANCH   6   9
ATOM      9  CB  LEU A   2      18.856   7.802 -15.747  0.00  0.00    +0.028 C 
BRANCH   9  10
ATOM     10  CG  LEU A   2      17.899   8.207 -14.622  0.00  0.00    +0.002 C 
ATOM     11  CD2 LEU A   2      18.573   8.060 -13.267  0.00  0.00    +0.000 C 
ATOM     12  CD1 LEU A   2      17.400   9.633 -14.818  0.00  0.00    +0.000 C 
ENDBRANCH   9  10
ENDBRANCH   6   9
ENDBRANCH   3   6
ENDBRANCH   1   2
BRANCH   1  13
ATOM     13  N   LYS A   1      15.287   4.970 -17.983  0.00  0.00    -0.238 NA
ATOM     14  H   LYS A   1      14.960   4.388 -17.185  0.00  0.00    +0.142 HD
ENDBRANCH   1  13
BRANCH   1  15
ATOM     15  CB  LYS A   1      14.007   6.701 -16.833  0.00  0.00    +0.026 C 
BRANCH  15  16
ATOM     16  CG  LYS A   1      13.483   8.125 -16.765  0.00  0.00    -0.000 C 
BRANCH  16  17
ATOM     17  CD  LYS A   1      12.417   8.205 -15.683  0.00  0.00    -0.024 C 
BRANCH  17  18
ATOM     18  CE  LYS A   1      12.340   9.564 -15.019  0.00  0.00    -0.086 C 
BRANCH  18  19
ATOM     19  NZ  LYS A   1      11.435   9.483 -13.840  0.00  0.00    +0.380 N 
ATOM     20  HZ1 LYS A   1      11.808   8.785 -13.165  0.00  0.00    -0.089 HD
ATOM     21  HZ2 LYS A   1      11.380  10.415 -13.382  0.00  0.00    -0.089 HD
ATOM     22  HZ3 LYS A   1      10.486   9.192 -14.152  0.00  0.00    -0.089 HD
ENDBRANCH  18  19
ENDBRANCH  17  18
ENDBRANCH  16  17
ENDBRANCH  15  16
ENDBRANCH   1  15
TORSDOF 11
REMARK  Name = ../refined-set-2016/4uyf/4uyf_pocket.pdb
REMARK  132 active torsions:
REMARK  status: ('A' for Active; 'I' for Inactive)
REMARK    1  A    between atoms: _1  and  _3
REMARK    2  A    between atoms: _3  and  _4
REMARK    3  A    between atoms: _3  and  _6
REMARK    4  A    between atoms: _6  and  _7
REMARK    5  A    between atoms: _13  and  _15
REMARK    6  A    between atoms: _15  and  _16
REMARK    7  A    between atoms: _19  and  _21
REMARK    8  A    between atoms: _21  and  _22
REMARK    9  A    between atoms: _21  and  _24
REMARK   10  A    between atoms: _24  and  _25
REMARK   11  A    between atoms: _36  and  _37
REMARK   12  A    between atoms: _42  and  _44
REMARK   13  A    between atoms: _44  and  _45
REMARK   14  A    between atoms: _44  and  _47
REMARK   15  A    between atoms: _47  and  _48
REMARK   16  A    between atoms: _54  and  _56
REMARK   17  A    between atoms: _56  and  _57
REMARK   18  A    between atoms: _56  and  _59
REMARK   19  A    between atoms: _59  and  _60
REMARK   20  A    between atoms: _60  and  _61
REMARK   21  A    between atoms: _61  and  _62
REMARK   22  A    between atoms: _71  and  _73
REMARK   23  A    between atoms: _73  and  _74
REMARK   24  A    between atoms: _73  and  _76
REMARK   25  A    between atoms: _76  and  _77
REMARK   26  A    between atoms: _77  and  _78
REMARK   27  A    between atoms: _84  and  _85
REMARK   28  A    between atoms: _90  and  _92
REMARK   29  A    between atoms: _92  and  _93
REMARK   30  A    between atoms: _92  and  _95
REMARK   31  A    between atoms: _98  and  _100
REMARK   32  A    between atoms: _100  and  _101
REMARK   33  A    between atoms: _100  and  _103
REMARK   34  A    between atoms: _103  and  _104
REMARK   35  A    between atoms: _107  and  _109
REMARK   36  A    between atoms: _109  and  _110
REMARK   37  A    between atoms: _113  and  _115
REMARK   38  A    between atoms: _115  and  _116
REMARK   39  A    between atoms: _115  and  _118
REMARK   40  A    between atoms: _118  and  _119
REMARK   41  A    between atoms: _119  and  _120
REMARK   42  A    between atoms: _120  and  _121
REMARK   43  A    between atoms: _121  and  _122
REMARK   44  A    between atoms: _126  and  _128
REMARK   45  A    between atoms: _128  and  _129
REMARK   46  A    between atoms: _128  and  _131
REMARK   47  A    between atoms: _131  and  _132
REMARK   48  A    between atoms: _135  and  _137
REMARK   49  A    between atoms: _137  and  _138
REMARK   50  A    between atoms: _137  and  _140
REMARK   51  A    between atoms: _140  and  _141
REMARK   52  A    between atoms: _144  and  _146
REMARK   53  A    between atoms: _146  and  _147
REMARK   54  A    between atoms: _146  and  _149
REMARK   55  A    between atoms: _149  and  _150
REMARK   56  A    between atoms: _155  and  _156
REMARK   57  A    between atoms: _158  and  _160
REMARK   58  A    between atoms: _160  and  _161
REMARK   59  A    between atoms: _160  and  _163
REMARK   60  A    between atoms: _163  and  _164
REMARK   61  A    between atoms: _167  and  _169
REMARK   62  A    between atoms: _169  and  _170
REMARK   63  A    between atoms: _169  and  _172
REMARK   64  A    between atoms: _172  and  _173
REMARK   65  A    between atoms: _173  and  _174
REMARK   66  A    between atoms: _176  and  _178
REMARK   67  A    between atoms: _178  and  _179
REMARK   68  A    between atoms: _178  and  _181
REMARK   69  A    between atoms: _181  and  _182
REMARK   70  A    between atoms: _185  and  _187
REMARK   71  A    between atoms: _187  and  _188
REMARK   72  A    between atoms: _187  and  _190
REMARK   73  A    between atoms: _190  and  _191
REMARK   74  A    between atoms: _191  and  _192
REMARK   75  A    between atoms: _194  and  _196
REMARK   76  A    between atoms: _196  and  _197
REMARK   77  A    between atoms: _196  and  _199
REMARK   78  A    between atoms: _199  and  _200
REMARK   79  A    between atoms: _206  and  _208
REMARK   80  A    between atoms: _208  and  _209
REMARK   81  A    between atoms: _208  and  _211
REMARK   82  A    between atoms: _211  and  _212
REMARK   83  A    between atoms: _217  and  _219
REMARK   84  A    between atoms: _219  and  _220
REMARK   85  A    between atoms: _219  and  _222
REMARK   86  A    between atoms: _224  and  _226
REMARK   87  A    between atoms: _226  and  _227
REMARK   88  A    between atoms: _226  and  _229
REMARK   89  A    between atoms: _229  and  _230
REMARK   90  A    between atoms: _235  and  _236
REMARK   91  A    between atoms: _238  and  _240
REMARK   92  A    between atoms: _240  and  _241
REMARK   93  A    between atoms: _240  and  _243
REMARK   94  A    between atoms: _243  and  _244
REMARK   95  A    between atoms: _247  and  _249
REMARK   96  A    between atoms: _249  and  _250
REMARK   97  A    between atoms: _249  and  _252
REMARK   98  A    between atoms: _252  and  _253
REMARK   99  A    between atoms: _258  and  _259
REMARK  100  A    between atoms: _261  and  _263
REMARK  101  A    between atoms: _263  and  _264
REMARK  102  A    between atoms: _263  and  _266
REMARK  103  A    between atoms: _266  and  _267
REMARK  104  A    between atoms: _272  and  _274
REMARK  105  A    between atoms: _274  and  _275
REMARK  106  A    between atoms: _274  and  _277
REMARK  107  A    between atoms: _277  and  _278
REMARK  108  A    between atoms: _278  and  _279
REMARK  109  A    between atoms: _279  and  _280
REMARK  110  A    between atoms: _280  and  _281
REMARK  111  A    between atoms: _285  and  _287
REMARK  112  A    between atoms: _287  and  _288
REMARK  113  A    between atoms: _287  and  _290
REMARK  114  A    between atoms: _290  and  _291
REMARK  115  A    between atoms: _294  and  _296
REMARK  116  A    between atoms: _296  and  _297
REMARK  117  A    between atoms: _296  and  _299
REMARK  118  A    between atoms: _299  and  _300
REMARK  119  A    between atoms: _303  and  _305
REMARK  120  A    between atoms: _305  and  _306
REMARK  121  A    between atoms: _305  and  _308
REMARK  122  A    between atoms: _308  and  _309
REMARK  123  A    between atoms: _312  and  _314
REMARK  124  A    between atoms: _314  and  _315
REMARK  125  A    between atoms: _314  and  _317
REMARK  126  A    between atoms: _320  and  _322
REMARK  127  A    between atoms: _322  and  _323
REMARK  128  A    between atoms: _322  and  _325
REMARK  129  A    between atoms: _325  and  _326
REMARK  130  A    between atoms: _326  and  _327
REMARK  131  A    between atoms: _329  and  _331
REMARK  132  A    between atoms: _331  and  _332
REMARK                            x       y       z     vdW  Elec       q    Type
REMARK                         _______ _______ _______ _____ _____    ______ ____
ROOT
ATOM      1  CA  LEU A   1      22.702   4.490 -17.443  0.00  0.00    +0.133 C 
ENDROOT
BRANCH   1   2
ATOM      2  N   LEU A   1      21.520   4.891 -18.198  0.00  0.00    -0.239 NA
ATOM      3  H   LEU A   1      20.592   4.548 -17.879  0.00  0.00    +0.142 HD
ENDBRANCH   1   2
BRANCH   1   4
ATOM      4  C   LEU A   1      22.831   2.963 -17.426  0.00  0.00    +0.224 C 
ATOM      5  O   LEU A   1      22.519   2.318 -16.421  0.00  0.00    -0.287 OA
ENDBRANCH   1   4
BRANCH   1   6
ATOM      6  CB  LEU A   1      22.607   5.019 -16.009  0.00  0.00    +0.025 C 
BRANCH   6   7
ATOM      7  CG  LEU A   1      22.424   6.527 -15.840  0.00  0.00    +0.002 C 
ATOM      8  CD2 LEU A   1      22.287   6.882 -14.362  0.00  0.00    +0.000 C 
ATOM      9  CD1 LEU A   1      23.579   7.292 -16.465  0.00  0.00    +0.000 C 
ENDBRANCH   6   7
ENDBRANCH   1   6
TORSDOF 4
REMARK  Name = ../refined-set-2016/4uyf/4uyf_pocket.pdb
REMARK  132 active torsions:
REMARK  status: ('A' for Active; 'I' for Inactive)
REMARK    1  A    between atoms: _1  and  _3
REMARK    2  A    between atoms: _3  and  _4
REMARK    3  A    between atoms: _3  and  _6
REMARK    4  A    between atoms: _6  and  _7
REMARK    5  A    between atoms: _13  and  _15
REMARK    6  A    between atoms: _15  and  _16
REMARK    7  A    between atoms: _19  and  _21
REMARK    8  A    between atoms: _21  and  _22
REMARK    9  A    between atoms: _21  and  _24
REMARK   10  A    between atoms: _24  and  _25
REMARK   11  A    between atoms: _36  and  _37
REMARK   12  A    between atoms: _42  and  _44
REMARK   13  A    between atoms: _44  and  _45
REMARK   14  A    between atoms: _44  and  _47
REMARK   15  A    between atoms: _47  and  _48
REMARK   16  A    between atoms: _54  and  _56
REMARK   17  A    between atoms: _56  and  _57
REMARK   18  A    between atoms: _56  and  _59
REMARK   19  A    between atoms: _59  and  _60
REMARK   20  A    between atoms: _60  and  _61
REMARK   21  A    between atoms: _61  and  _62
REMARK   22  A    between atoms: _71  and  _73
REMARK   23  A    between atoms: _73  and  _74
REMARK   24  A    between atoms: _73  and  _76
REMARK   25  A    between atoms: _76  and  _77
REMARK   26  A    between atoms: _77  and  _78
REMARK   27  A    between atoms: _84  and  _85
REMARK   28  A    between atoms: _90  and  _92
REMARK   29  A    between atoms: _92  and  _93
REMARK   30  A    between atoms: _92  and  _95
REMARK   31  A    between atoms: _98  and  _100
REMARK   32  A    between atoms: _100  and  _101
REMARK   33  A    between atoms: _100  and  _103
REMARK   34  A    between atoms: _103  and  _104
REMARK   35  A    between atoms: _107  and  _109
REMARK   36  A    between atoms: _109  and  _110
REMARK   37  A    between atoms: _113  and  _115
REMARK   38  A    between atoms: _115  and  _116
REMARK   39  A    between atoms: _115  and  _118
REMARK   40  A    between atoms: _118  and  _119
REMARK   41  A    between atoms: _119  and  _120
REMARK   42  A    between atoms: _120  and  _121
REMARK   43  A    between atoms: _121  and  _122
REMARK   44  A    between atoms: _126  and  _128
REMARK   45  A    between atoms: _128  and  _129
REMARK   46  A    between atoms: _128  and  _131
REMARK   47  A    between atoms: _131  and  _132
REMARK   48  A    between atoms: _135  and  _137
REMARK   49  A    between atoms: _137  and  _138
REMARK   50  A    between atoms: _137  and  _140
REMARK   51  A    between atoms: _140  and  _141
REMARK   52  A    between atoms: _144  and  _146
REMARK   53  A    between atoms: _146  and  _147
REMARK   54  A    between atoms: _146  and  _149
REMARK   55  A    between atoms: _149  and  _150
REMARK   56  A    between atoms: _155  and  _156
REMARK   57  A    between atoms: _158  and  _160
REMARK   58  A    between atoms: _160  and  _161
REMARK   59  A    between atoms: _160  and  _163
REMARK   60  A    between atoms: _163  and  _164
REMARK   61  A    between atoms: _167  and  _169
REMARK   62  A    between atoms: _169  and  _170
REMARK   63  A    between atoms: _169  and  _172
REMARK   64  A    between atoms: _172  and  _173
REMARK   65  A    between atoms: _173  and  _174
REMARK   66  A    between atoms: _176  and  _178
REMARK   67  A    between atoms: _178  and  _179
REMARK   68  A    between atoms: _178  and  _181
REMARK   69  A    between atoms: _181  and  _182
REMARK   70  A    between atoms: _185  and  _187
REMARK   71  A    between atoms: _187  and  _188
REMARK   72  A    between atoms: _187  and  _190
REMARK   73  A    between atoms: _190  and  _191
REMARK   74  A    between atoms: _191  and  _192
REMARK   75  A    between atoms: _194  and  _196
REMARK   76  A    between atoms: _196  and  _197
REMARK   77  A    between atoms: _196  and  _199
REMARK   78  A    between atoms: _199  and  _200
REMARK   79  A    between atoms: _206  and  _208
REMARK   80  A    between atoms: _208  and  _209
REMARK   81  A    between atoms: _208  and  _211
REMARK   82  A    between atoms: _211  and  _212
REMARK   83  A    between atoms: _217  and  _219
REMARK   84  A    between atoms: _219  and  _220
REMARK   85  A    between atoms: _219  and  _222
REMARK   86  A    between atoms: _224  and  _226
REMARK   87  A    between atoms: _226  and  _227
REMARK   88  A    between atoms: _226  and  _229
REMARK   89  A    between atoms: _229  and  _230
REMARK   90  A    between atoms: _235  and  _236
REMARK   91  A    between atoms: _238  and  _240
REMARK   92  A    between atoms: _240  and  _241
REMARK   93  A    between atoms: _240  and  _243
REMARK   94  A    between atoms: _243  and  _244
REMARK   95  A    between atoms: _247  and  _249
REMARK   96  A    between atoms: _249  and  _250
REMARK   97  A    between atoms: _249  and  _252
REMARK   98  A    between atoms: _252  and  _253
REMARK   99  A    between atoms: _258  and  _259
REMARK  100  A    between atoms: _261  and  _263
REMARK  101  A    between atoms: _263  and  _264
REMARK  102  A    between atoms: _263  and  _266
REMARK  103  A    between atoms: _266  and  _267
REMARK  104  A    between atoms: _272  and  _274
REMARK  105  A    between atoms: _274  and  _275
REMARK  106  A    between atoms: _274  and  _277
REMARK  107  A    between atoms: _277  and  _278
REMARK  108  A    between atoms: _278  and  _279
REMARK  109  A    between atoms: _279  and  _280
REMARK  110  A    between atoms: _280  and  _281
REMARK  111  A    between atoms: _285  and  _287
REMARK  112  A    between atoms: _287  and  _288
REMARK  113  A    between atoms: _287  and  _290
REMARK  114  A    between atoms: _290  and  _291
REMARK  115  A    between atoms: _294  and  _296
REMARK  116  A    between atoms: _296  and  _297
REMARK  117  A    between atoms: _296  and  _299
REMARK  118  A    between atoms: _299  and  _300
REMARK  119  A    between atoms: _303  and  _305
REMARK  120  A    between atoms: _305  and  _306
REMARK  121  A    between atoms: _305  and  _308
REMARK  122  A    between atoms: _308  and  _309
REMARK  123  A    between atoms: _312  and  _314
REMARK  124  A    between atoms: _314  and  _315
REMARK  125  A    between atoms: _314  and  _317
REMARK  126  A    between atoms: _320  and  _322
REMARK  127  A    between atoms: _322  and  _323
REMARK  128  A    between atoms: _322  and  _325
REMARK  129  A    between atoms: _325  and  _326
REMARK  130  A    between atoms: _326  and  _327
REMARK  131  A    between atoms: _329  and  _331
REMARK  132  A    between atoms: _331  and  _332
REMARK                            x       y       z     vdW  Elec       q    Type
REMARK                         _______ _______ _______ _____ _____    ______ ____
ROOT
ATOM      1  CG  TYR A   1      22.554   2.609 -11.473  0.00  0.00    -0.020 A 
ATOM      2  CD2 TYR A   1      21.733   1.823 -10.673  0.00  0.00    -0.001 A 
ATOM      3  CE2 TYR A   1      21.500   2.146  -9.343  0.00  0.00    +0.036 A 
ATOM      4  CZ  TYR A   1      22.107   3.264  -8.799  0.00  0.00    +0.134 A 
ATOM      5  CE1 TYR A   1      22.944   4.047  -9.569  0.00  0.00    +0.036 A 
ATOM      6  CD1 TYR A   1      23.171   3.713 -10.894  0.00  0.00    -0.001 A 
ENDROOT
BRANCH   4   7
ATOM      7  OH  TYR A   1      21.889   3.587  -7.485  0.00  0.00    -0.506 OA
ATOM      8  HH  TYR A   1      22.394   4.408  -7.260  0.00  0.00    +0.292 HD
ENDBRANCH   4   7
BRANCH   1   9
ATOM      9  CB  TYR A   1      22.844   2.228 -12.911  0.00  0.00    +0.051 C 
BRANCH   9  10
ATOM     10  CA  TYR A   1      24.184   1.481 -13.014  0.00  0.00    +0.137 C 
BRANCH  10  11
ATOM     11  N   TYR A   1      24.602   1.240 -14.402  0.00  0.00    -0.239 NA
ATOM     12  H   TYR A   1      24.011   1.574 -15.190  0.00  0.00    +0.142 HD
ENDBRANCH  10  11
BRANCH  10  13
ATOM     13  C   TYR A   1      24.115   0.192 -12.202  0.00  0.00    +0.224 C 
ATOM     14  O   TYR A   1      24.705   0.101 -11.126  0.00  0.00    -0.287 OA
ENDBRANCH  10  13
ENDBRANCH   9  10
ENDBRANCH   1   9
TORSDOF 5
REMARK  Name = ../refined-set-2016/4uyf/4uyf_pocket.pdb
REMARK  132 active torsions:
REMARK  status: ('A' for Active; 'I' for Inactive)
REMARK    1  A    between atoms: _1  and  _3
REMARK    2  A    between atoms: _3  and  _4
REMARK    3  A    between atoms: _3  and  _6
REMARK    4  A    between atoms: _6  and  _7
REMARK    5  A    between atoms: _13  and  _15
REMARK    6  A    between atoms: _15  and  _16
REMARK    7  A    between atoms: _19  and  _21
REMARK    8  A    between atoms: _21  and  _22
REMARK    9  A    between atoms: _21  and  _24
REMARK   10  A    between atoms: _24  and  _25
REMARK   11  A    between atoms: _36  and  _37
REMARK   12  A    between atoms: _42  and  _44
REMARK   13  A    between atoms: _44  and  _45
REMARK   14  A    between atoms: _44  and  _47
REMARK   15  A    between atoms: _47  and  _48
REMARK   16  A    between atoms: _54  and  _56
REMARK   17  A    between atoms: _56  and  _57
REMARK   18  A    between atoms: _56  and  _59
REMARK   19  A    between atoms: _59  and  _60
REMARK   20  A    between atoms: _60  and  _61
REMARK   21  A    between atoms: _61  and  _62
REMARK   22  A    between atoms: _71  and  _73
REMARK   23  A    between atoms: _73  and  _74
REMARK   24  A    between atoms: _73  and  _76
REMARK   25  A    between atoms: _76  and  _77
REMARK   26  A    between atoms: _77  and  _78
REMARK   27  A    between atoms: _84  and  _85
REMARK   28  A    between atoms: _90  and  _92
REMARK   29  A    between atoms: _92  and  _93
REMARK   30  A    between atoms: _92  and  _95
REMARK   31  A    between atoms: _98  and  _100
REMARK   32  A    between atoms: _100  and  _101
REMARK   33  A    between atoms: _100  and  _103
REMARK   34  A    between atoms: _103  and  _104
REMARK   35  A    between atoms: _107  and  _109
REMARK   36  A    between atoms: _109  and  _110
REMARK   37  A    between atoms: _113  and  _115
REMARK   38  A    between atoms: _115  and  _116
REMARK   39  A    between atoms: _115  and  _118
REMARK   40  A    between atoms: _118  and  _119
REMARK   41  A    between atoms: _119  and  _120
REMARK   42  A    between atoms: _120  and  _121
REMARK   43  A    between atoms: _121  and  _122
REMARK   44  A    between atoms: _126  and  _128
REMARK   45  A    between atoms: _128  and  _129
REMARK   46  A    between atoms: _128  and  _131
REMARK   47  A    between atoms: _131  and  _132
REMARK   48  A    between atoms: _135  and  _137
REMARK   49  A    between atoms: _137  and  _138
REMARK   50  A    between atoms: _137  and  _140
REMARK   51  A    between atoms: _140  and  _141
REMARK   52  A    between atoms: _144  and  _146
REMARK   53  A    between atoms: _146  and  _147
REMARK   54  A    between atoms: _146  and  _149
REMARK   55  A    between atoms: _149  and  _150
REMARK   56  A    between atoms: _155  and  _156
REMARK   57  A    between atoms: _158  and  _160
REMARK   58  A    between atoms: _160  and  _161
REMARK   59  A    between atoms: _160  and  _163
REMARK   60  A    between atoms: _163  and  _164
REMARK   61  A    between atoms: _167  and  _169
REMARK   62  A    between atoms: _169  and  _170
REMARK   63  A    between atoms: _169  and  _172
REMARK   64  A    between atoms: _172  and  _173
REMARK   65  A    between atoms: _173  and  _174
REMARK   66  A    between atoms: _176  and  _178
REMARK   67  A    between atoms: _178  and  _179
REMARK   68  A    between atoms: _178  and  _181
REMARK   69  A    between atoms: _181  and  _182
REMARK   70  A    between atoms: _185  and  _187
REMARK   71  A    between atoms: _187  and  _188
REMARK   72  A    between atoms: _187  and  _190
REMARK   73  A    between atoms: _190  and  _191
REMARK   74  A    between atoms: _191  and  _192
REMARK   75  A    between atoms: _194  and  _196
REMARK   76  A    between atoms: _196  and  _197
REMARK   77  A    between atoms: _196  and  _199
REMARK   78  A    between atoms: _199  and  _200
REMARK   79  A    between atoms: _206  and  _208
REMARK   80  A    between atoms: _208  and  _209
REMARK   81  A    between atoms: _208  and  _211
REMARK   82  A    between atoms: _211  and  _212
REMARK   83  A    between atoms: _217  and  _219
REMARK   84  A    between atoms: _219  and  _220
REMARK   85  A    between atoms: _219  and  _222
REMARK   86  A    between atoms: _224  and  _226
REMARK   87  A    between atoms: _226  and  _227
REMARK   88  A    between atoms: _226  and  _229
REMARK   89  A    between atoms: _229  and  _230
REMARK   90  A    between atoms: _235  and  _236
REMARK   91  A    between atoms: _238  and  _240
REMARK   92  A    between atoms: _240  and  _241
REMARK   93  A    between atoms: _240  and  _243
REMARK   94  A    between atoms: _243  and  _244
REMARK   95  A    between atoms: _247  and  _249
REMARK   96  A    between atoms: _249  and  _250
REMARK   97  A    between atoms: _249  and  _252
REMARK   98  A    between atoms: _252  and  _253
REMARK   99  A    between atoms: _258  and  _259
REMARK  100  A    between atoms: _261  and  _263
REMARK  101  A    between atoms: _263  and  _264
REMARK  102  A    between atoms: _263  and  _266
REMARK  103  A    between atoms: _266  and  _267
REMARK  104  A    between atoms: _272  and  _274
REMARK  105  A    between atoms: _274  and  _275
REMARK  106  A    between atoms: _274  and  _277
REMARK  107  A    between atoms: _277  and  _278
REMARK  108  A    between atoms: _278  and  _279
REMARK  109  A    between atoms: _279  and  _280
REMARK  110  A    between atoms: _280  and  _281
REMARK  111  A    between atoms: _285  and  _287
REMARK  112  A    between atoms: _287  and  _288
REMARK  113  A    between atoms: _287  and  _290
REMARK  114  A    between atoms: _290  and  _291
REMARK  115  A    between atoms: _294  and  _296
REMARK  116  A    between atoms: _296  and  _297
REMARK  117  A    between atoms: _296  and  _299
REMARK  118  A    between atoms: _299  and  _300
REMARK  119  A    between atoms: _303  and  _305
REMARK  120  A    between atoms: _305  and  _306
REMARK  121  A    between atoms: _305  and  _308
REMARK  122  A    between atoms: _308  and  _309
REMARK  123  A    between atoms: _312  and  _314
REMARK  124  A    between atoms: _314  and  _315
REMARK  125  A    between atoms: _314  and  _317
REMARK  126  A    between atoms: _320  and  _322
REMARK  127  A    between atoms: _322  and  _323
REMARK  128  A    between atoms: _322  and  _325
REMARK  129  A    between atoms: _325  and  _326
REMARK  130  A    between atoms: _326  and  _327
REMARK  131  A    between atoms: _329  and  _331
REMARK  132  A    between atoms: _331  and  _332
REMARK                            x       y       z     vdW  Elec       q    Type
REMARK                         _______ _______ _______ _____ _____    ______ ____
ROOT
ATOM      1  CA  ILE A   1      25.400  -0.830  -7.646  0.00  0.00    +0.133 C 
ENDROOT
BRANCH   1   2
ATOM      2  N   ILE A   1      26.192  -0.842  -8.874  0.00  0.00    -0.239 NA
ATOM      3  H   ILE A   1      25.715  -0.660  -9.780  0.00  0.00    +0.142 HD
ENDBRANCH   1   2
BRANCH   1   4
ATOM      4  C   ILE A   1      24.588  -2.115  -7.535  0.00  0.00    +0.224 C 
ATOM      5  O   ILE A   1      23.631  -2.317  -8.282  0.00  0.00    -0.287 OA
ENDBRANCH   1   4
BRANCH   1   6
ATOM      6  CB  ILE A   1      24.458   0.396  -7.600  0.00  0.00    +0.023 C 
ATOM      7  CG2 ILE A   1      23.575   0.369  -6.359  0.00  0.00    +0.002 C 
BRANCH   6   8
ATOM      8  CG1 ILE A   1      25.274   1.691  -7.622  0.00  0.00    +0.002 C 
ATOM      9  CD1 ILE A   1      26.262   1.829  -6.484  0.00  0.00    +0.000 C 
ENDBRANCH   6   8
ENDBRANCH   1   6
TORSDOF 4
REMARK  Name = ../refined-set-2016/4uyf/4uyf_pocket.pdb
REMARK  132 active torsions:
REMARK  status: ('A' for Active; 'I' for Inactive)
REMARK    1  A    between atoms: _1  and  _3
REMARK    2  A    between atoms: _3  and  _4
REMARK    3  A    between atoms: _3  and  _6
REMARK    4  A    between atoms: _6  and  _7
REMARK    5  A    between atoms: _13  and  _15
REMARK    6  A    between atoms: _15  and  _16
REMARK    7  A    between atoms: _19  and  _21
REMARK    8  A    between atoms: _21  and  _22
REMARK    9  A    between atoms: _21  and  _24
REMARK   10  A    between atoms: _24  and  _25
REMARK   11  A    between atoms: _36  and  _37
REMARK   12  A    between atoms: _42  and  _44
REMARK   13  A    between atoms: _44  and  _45
REMARK   14  A    between atoms: _44  and  _47
REMARK   15  A    between atoms: _47  and  _48
REMARK   16  A    between atoms: _54  and  _56
REMARK   17  A    between atoms: _56  and  _57
REMARK   18  A    between atoms: _56  and  _59
REMARK   19  A    between atoms: _59  and  _60
REMARK   20  A    between atoms: _60  and  _61
REMARK   21  A    between atoms: _61  and  _62
REMARK   22  A    between atoms: _71  and  _73
REMARK   23  A    between atoms: _73  and  _74
REMARK   24  A    between atoms: _73  and  _76
REMARK   25  A    between atoms: _76  and  _77
REMARK   26  A    between atoms: _77  and  _78
REMARK   27  A    between atoms: _84  and  _85
REMARK   28  A    between atoms: _90  and  _92
REMARK   29  A    between atoms: _92  and  _93
REMARK   30  A    between atoms: _92  and  _95
REMARK   31  A    between atoms: _98  and  _100
REMARK   32  A    between atoms: _100  and  _101
REMARK   33  A    between atoms: _100  and  _103
REMARK   34  A    between atoms: _103  and  _104
REMARK   35  A    between atoms: _107  and  _109
REMARK   36  A    between atoms: _109  and  _110
REMARK   37  A    between atoms: _113  and  _115
REMARK   38  A    between atoms: _115  and  _116
REMARK   39  A    between atoms: _115  and  _118
REMARK   40  A    between atoms: _118  and  _119
REMARK   41  A    between atoms: _119  and  _120
REMARK   42  A    between atoms: _120  and  _121
REMARK   43  A    between atoms: _121  and  _122
REMARK   44  A    between atoms: _126  and  _128
REMARK   45  A    between atoms: _128  and  _129
REMARK   46  A    between atoms: _128  and  _131
REMARK   47  A    between atoms: _131  and  _132
REMARK   48  A    between atoms: _135  and  _137
REMARK   49  A    between atoms: _137  and  _138
REMARK   50  A    between atoms: _137  and  _140
REMARK   51  A    between atoms: _140  and  _141
REMARK   52  A    between atoms: _144  and  _146
REMARK   53  A    between atoms: _146  and  _147
REMARK   54  A    between atoms: _146  and  _149
REMARK   55  A    between atoms: _149  and  _150
REMARK   56  A    between atoms: _155  and  _156
REMARK   57  A    between atoms: _158  and  _160
REMARK   58  A    between atoms: _160  and  _161
REMARK   59  A    between atoms: _160  and  _163
REMARK   60  A    between atoms: _163  and  _164
REMARK   61  A    between atoms: _167  and  _169
REMARK   62  A    between atoms: _169  and  _170
REMARK   63  A    between atoms: _169  and  _172
REMARK   64  A    between atoms: _172  and  _173
REMARK   65  A    between atoms: _173  and  _174
REMARK   66  A    between atoms: _176  and  _178
REMARK   67  A    between atoms: _178  and  _179
REMARK   68  A    between atoms: _178  and  _181
REMARK   69  A    between atoms: _181  and  _182
REMARK   70  A    between atoms: _185  and  _187
REMARK   71  A    between atoms: _187  and  _188
REMARK   72  A    between atoms: _187  and  _190
REMARK   73  A    between atoms: _190  and  _191
REMARK   74  A    between atoms: _191  and  _192
REMARK   75  A    between atoms: _194  and  _196
REMARK   76  A    between atoms: _196  and  _197
REMARK   77  A    between atoms: _196  and  _199
REMARK   78  A    between atoms: _199  and  _200
REMARK   79  A    between atoms: _206  and  _208
REMARK   80  A    between atoms: _208  and  _209
REMARK   81  A    between atoms: _208  and  _211
REMARK   82  A    between atoms: _211  and  _212
REMARK   83  A    between atoms: _217  and  _219
REMARK   84  A    between atoms: _219  and  _220
REMARK   85  A    between atoms: _219  and  _222
REMARK   86  A    between atoms: _224  and  _226
REMARK   87  A    between atoms: _226  and  _227
REMARK   88  A    between atoms: _226  and  _229
REMARK   89  A    between atoms: _229  and  _230
REMARK   90  A    between atoms: _235  and  _236
REMARK   91  A    between atoms: _238  and  _240
REMARK   92  A    between atoms: _240  and  _241
REMARK   93  A    between atoms: _240  and  _243
REMARK   94  A    between atoms: _243  and  _244
REMARK   95  A    between atoms: _247  and  _249
REMARK   96  A    between atoms: _249  and  _250
REMARK   97  A    between atoms: _249  and  _252
REMARK   98  A    between atoms: _252  and  _253
REMARK   99  A    between atoms: _258  and  _259
REMARK  100  A    between atoms: _261  and  _263
REMARK  101  A    between atoms: _263  and  _264
REMARK  102  A    between atoms: _263  and  _266
REMARK  103  A    between atoms: _266  and  _267
REMARK  104  A    between atoms: _272  and  _274
REMARK  105  A    between atoms: _274  and  _275
REMARK  106  A    between atoms: _274  and  _277
REMARK  107  A    between atoms: _277  and  _278
REMARK  108  A    between atoms: _278  and  _279
REMARK  109  A    between atoms: _279  and  _280
REMARK  110  A    between atoms: _280  and  _281
REMARK  111  A    between atoms: _285  and  _287
REMARK  112  A    between atoms: _287  and  _288
REMARK  113  A    between atoms: _287  and  _290
REMARK  114  A    between atoms: _290  and  _291
REMARK  115  A    between atoms: _294  and  _296
REMARK  116  A    between atoms: _296  and  _297
REMARK  117  A    between atoms: _296  and  _299
REMARK  118  A    between atoms: _299  and  _300
REMARK  119  A    between atoms: _303  and  _305
REMARK  120  A    between atoms: _305  and  _306
REMARK  121  A    between atoms: _305  and  _308
REMARK  122  A    between atoms: _308  and  _309
REMARK  123  A    between atoms: _312  and  _314
REMARK  124  A    between atoms: _314  and  _315
REMARK  125  A    between atoms: _314  and  _317
REMARK  126  A    between atoms: _320  and  _322
REMARK  127  A    between atoms: _322  and  _323
REMARK  128  A    between atoms: _322  and  _325
REMARK  129  A    between atoms: _325  and  _326
REMARK  130  A    between atoms: _326  and  _327
REMARK  131  A    between atoms: _329  and  _331
REMARK  132  A    between atoms: _331  and  _332
REMARK                            x       y       z     vdW  Elec       q    Type
REMARK                         _______ _______ _______ _____ _____    ______ ____
ROOT
ATOM      1  C   MET A   1      17.287   2.870  -2.619  0.00  0.00    +0.238 C 
ATOM      2  N   ASP A   2      16.087   3.145  -2.121  0.00  0.00    -0.298 N 
ATOM      3  H   ASP A   2      15.600   2.408  -1.572  0.00  0.00    +0.150 HD
ATOM      4  O   MET A   1      17.968   3.681  -3.259  0.00  0.00    -0.274 OA
ENDROOT
BRANCH   1   5
ATOM      5  CA  MET A   1      17.795   1.466  -2.358  0.00  0.00    +0.146 C 
BRANCH   5   6
ATOM      6  N   MET A   1      18.673   1.073  -3.446  0.00  0.00    -0.238 NA
ATOM      7  H   MET A   1      19.190   1.805  -3.973  0.00  0.00    +0.142 HD
ENDBRANCH   5   6
BRANCH   5   8
ATOM      8  CB  MET A   1      18.519   1.381  -1.009  0.00  0.00    +0.038 C 
BRANCH   8   9
ATOM      9  CG  MET A   1      17.631   1.559   0.218  0.00  0.00    +0.060 C 
BRANCH   9  10
ATOM     10  SD  MET A   1      16.182   0.480   0.284  0.00  0.00    -0.139 S 
ATOM     11  CE  MET A   1      16.935  -1.120   0.005  0.00  0.00    +0.069 C 
ENDBRANCH   9  10
ENDBRANCH   8   9
ENDBRANCH   5   8
ENDBRANCH   1   5
BRANCH   2  12
ATOM     12  CA  ASP A   2      15.417   4.427  -2.305  0.00  0.00    +0.148 C 
BRANCH  12  13
ATOM     13  C   ASP A   2      14.426   4.664  -1.166  0.00  0.00    +0.227 C 
ATOM     14  O   ASP A   2      14.091   3.747  -0.441  0.00  0.00    -0.286 OA
ENDBRANCH  12  13
BRANCH  12  15
ATOM     15  CB  ASP A   2      14.678   4.459  -3.633  0.00  0.00    +0.142 C 
BRANCH  15  16
ATOM     16  CG  ASP A   2      13.508   3.507  -3.659  0.00  0.00    +0.367 C 
ATOM     17  OD2 ASP A   2      12.361   3.968  -3.523  0.00  0.00    -0.246 OA
ATOM     18  OD1 ASP A   2      13.747   2.296  -3.803  0.00  0.00    -0.246 OA
ENDBRANCH  15  16
ENDBRANCH  12  15
ENDBRANCH   2  12
TORSDOF 9
REMARK  Name = ../refined-set-2016/4uyf/4uyf_pocket.pdb
REMARK  132 active torsions:
REMARK  status: ('A' for Active; 'I' for Inactive)
REMARK    1  A    between atoms: _1  and  _3
REMARK    2  A    between atoms: _3  and  _4
REMARK    3  A    between atoms: _3  and  _6
REMARK    4  A    between atoms: _6  and  _7
REMARK    5  A    between atoms: _13  and  _15
REMARK    6  A    between atoms: _15  and  _16
REMARK    7  A    between atoms: _19  and  _21
REMARK    8  A    between atoms: _21  and  _22
REMARK    9  A    between atoms: _21  and  _24
REMARK   10  A    between atoms: _24  and  _25
REMARK   11  A    between atoms: _36  and  _37
REMARK   12  A    between atoms: _42  and  _44
REMARK   13  A    between atoms: _44  and  _45
REMARK   14  A    between atoms: _44  and  _47
REMARK   15  A    between atoms: _47  and  _48
REMARK   16  A    between atoms: _54  and  _56
REMARK   17  A    between atoms: _56  and  _57
REMARK   18  A    between atoms: _56  and  _59
REMARK   19  A    between atoms: _59  and  _60
REMARK   20  A    between atoms: _60  and  _61
REMARK   21  A    between atoms: _61  and  _62
REMARK   22  A    between atoms: _71  and  _73
REMARK   23  A    between atoms: _73  and  _74
REMARK   24  A    between atoms: _73  and  _76
REMARK   25  A    between atoms: _76  and  _77
REMARK   26  A    between atoms: _77  and  _78
REMARK   27  A    between atoms: _84  and  _85
REMARK   28  A    between atoms: _90  and  _92
REMARK   29  A    between atoms: _92  and  _93
REMARK   30  A    between atoms: _92  and  _95
REMARK   31  A    between atoms: _98  and  _100
REMARK   32  A    between atoms: _100  and  _101
REMARK   33  A    between atoms: _100  and  _103
REMARK   34  A    between atoms: _103  and  _104
REMARK   35  A    between atoms: _107  and  _109
REMARK   36  A    between atoms: _109  and  _110
REMARK   37  A    between atoms: _113  and  _115
REMARK   38  A    between atoms: _115  and  _116
REMARK   39  A    between atoms: _115  and  _118
REMARK   40  A    between atoms: _118  and  _119
REMARK   41  A    between atoms: _119  and  _120
REMARK   42  A    between atoms: _120  and  _121
REMARK   43  A    between atoms: _121  and  _122
REMARK   44  A    between atoms: _126  and  _128
REMARK   45  A    between atoms: _128  and  _129
REMARK   46  A    between atoms: _128  and  _131
REMARK   47  A    between atoms: _131  and  _132
REMARK   48  A    between atoms: _135  and  _137
REMARK   49  A    between atoms: _137  and  _138
REMARK   50  A    between atoms: _137  and  _140
REMARK   51  A    between atoms: _140  and  _141
REMARK   52  A    between atoms: _144  and  _146
REMARK   53  A    between atoms: _146  and  _147
REMARK   54  A    between atoms: _146  and  _149
REMARK   55  A    between atoms: _149  and  _150
REMARK   56  A    between atoms: _155  and  _156
REMARK   57  A    between atoms: _158  and  _160
REMARK   58  A    between atoms: _160  and  _161
REMARK   59  A    between atoms: _160  and  _163
REMARK   60  A    between atoms: _163  and  _164
REMARK   61  A    between atoms: _167  and  _169
REMARK   62  A    between atoms: _169  and  _170
REMARK   63  A    between atoms: _169  and  _172
REMARK   64  A    between atoms: _172  and  _173
REMARK   65  A    between atoms: _173  and  _174
REMARK   66  A    between atoms: _176  and  _178
REMARK   67  A    between atoms: _178  and  _179
REMARK   68  A    between atoms: _178  and  _181
REMARK   69  A    between atoms: _181  and  _182
REMARK   70  A    between atoms: _185  and  _187
REMARK   71  A    between atoms: _187  and  _188
REMARK   72  A    between atoms: _187  and  _190
REMARK   73  A    between atoms: _190  and  _191
REMARK   74  A    between atoms: _191  and  _192
REMARK   75  A    between atoms: _194  and  _196
REMARK   76  A    between atoms: _196  and  _197
REMARK   77  A    between atoms: _196  and  _199
REMARK   78  A    between atoms: _199  and  _200
REMARK   79  A    between atoms: _206  and  _208
REMARK   80  A    between atoms: _208  and  _209
REMARK   81  A    between atoms: _208  and  _211
REMARK   82  A    between atoms: _211  and  _212
REMARK   83  A    between atoms: _217  and  _219
REMARK   84  A    between atoms: _219  and  _220
REMARK   85  A    between atoms: _219  and  _222
REMARK   86  A    between atoms: _224  and  _226
REMARK   87  A    between atoms: _226  and  _227
REMARK   88  A    between atoms: _226  and  _229
REMARK   89  A    between atoms: _229  and  _230
REMARK   90  A    between atoms: _235  and  _236
REMARK   91  A    between atoms: _238  and  _240
REMARK   92  A    between atoms: _240  and  _241
REMARK   93  A    between atoms: _240  and  _243
REMARK   94  A    between atoms: _243  and  _244
REMARK   95  A    between atoms: _247  and  _249
REMARK   96  A    between atoms: _249  and  _250
REMARK   97  A    between atoms: _249  and  _252
REMARK   98  A    between atoms: _252  and  _253
REMARK   99  A    between atoms: _258  and  _259
REMARK  100  A    between atoms: _261  and  _263
REMARK  101  A    between atoms: _263  and  _264
REMARK  102  A    between atoms: _263  and  _266
REMARK  103  A    between atoms: _266  and  _267
REMARK  104  A    between atoms: _272  and  _274
REMARK  105  A    between atoms: _274  and  _275
REMARK  106  A    between atoms: _274  and  _277
REMARK  107  A    between atoms: _277  and  _278
REMARK  108  A    between atoms: _278  and  _279
REMARK  109  A    between atoms: _279  and  _280
REMARK  110  A    between atoms: _280  and  _281
REMARK  111  A    between atoms: _285  and  _287
REMARK  112  A    between atoms: _287  and  _288
REMARK  113  A    between atoms: _287  and  _290
REMARK  114  A    between atoms: _290  and  _291
REMARK  115  A    between atoms: _294  and  _296
REMARK  116  A    between atoms: _296  and  _297
REMARK  117  A    between atoms: _296  and  _299
REMARK  118  A    between atoms: _299  and  _300
REMARK  119  A    between atoms: _303  and  _305
REMARK  120  A    between atoms: _305  and  _306
REMARK  121  A    between atoms: _305  and  _308
REMARK  122  A    between atoms: _308  and  _309
REMARK  123  A    between atoms: _312  and  _314
REMARK  124  A    between atoms: _314  and  _315
REMARK  125  A    between atoms: _314  and  _317
REMARK  126  A    between atoms: _320  and  _322
REMARK  127  A    between atoms: _322  and  _323
REMARK  128  A    between atoms: _322  and  _325
REMARK  129  A    between atoms: _325  and  _326
REMARK  130  A    between atoms: _326  and  _327
REMARK  131  A    between atoms: _329  and  _331
REMARK  132  A    between atoms: _331  and  _332
REMARK                            x       y       z     vdW  Elec       q    Type
REMARK                         _______ _______ _______ _____ _____    ______ ____
ROOT
ATOM      1  C   MET A   1      21.784   5.775  -0.712  0.00  0.00    +0.238 C 
ATOM      2  N   PHE A   2      22.303   6.356   0.366  0.00  0.00    -0.298 N 
ATOM      3  H   PHE A   2      22.006   6.034   1.309  0.00  0.00    +0.150 HD
ATOM      4  O   MET A   1      22.086   6.113  -1.862  0.00  0.00    -0.274 OA
ENDROOT
BRANCH   1   5
ATOM      5  CA  MET A   1      20.766   4.657  -0.461  0.00  0.00    +0.146 C 
BRANCH   5   6
ATOM      6  N   MET A   1      21.266   3.713   0.535  0.00  0.00    -0.238 NA
ATOM      7  H   MET A   1      20.708   3.532   1.393  0.00  0.00    +0.142 HD
ENDBRANCH   5   6
BRANCH   5   8
ATOM      8  CB  MET A   1      19.433   5.242  -0.003  0.00  0.00    +0.038 C 
BRANCH   8   9
ATOM      9  CG  MET A   1      18.825   6.248  -0.953  0.00  0.00    +0.060 C 
BRANCH   9  10
ATOM     10  SD  MET A   1      17.320   6.974  -0.288  0.00  0.00    -0.139 S 
ATOM     11  CE  MET A   1      17.974   7.975   1.047  0.00  0.00    +0.069 C 
ENDBRANCH   9  10
ENDBRANCH   8   9
ENDBRANCH   5   8
ENDBRANCH   1   5
BRANCH   2  12
ATOM     12  CA  PHE A   2      23.282   7.437   0.257  0.00  0.00    +0.141 C 
BRANCH  12  13
ATOM     13  C   PHE A   2      24.622   6.957  -0.310  0.00  0.00    +0.227 C 
ATOM     14  O   PHE A   2      25.177   7.581  -1.211  0.00  0.00    -0.286 OA
ENDBRANCH  12  13
BRANCH  12  15
ATOM     15  CB  PHE A   2      23.485   8.122   1.618  0.00  0.00    +0.054 C 
BRANCH  15  16
ATOM     16  CG  PHE A   2      22.270   8.871   2.105  0.00  0.00    -0.020 A 
ATOM     17  CD2 PHE A   2      21.777   8.659   3.387  0.00  0.00    -0.004 A 
ATOM     18  CE2 PHE A   2      20.662   9.346   3.840  0.00  0.00    -0.000 A 
ATOM     19  CZ  PHE A   2      20.019  10.231   3.003  0.00  0.00    -0.000 A 
ATOM     20  CE1 PHE A   2      20.493  10.453   1.724  0.00  0.00    -0.000 A 
ATOM     21  CD1 PHE A   2      21.612   9.774   1.276  0.00  0.00    -0.004 A 
ENDBRANCH  15  16
ENDBRANCH  12  15
ENDBRANCH   2  12
TORSDOF 9
REMARK  Name = ../refined-set-2016/4uyf/4uyf_pocket.pdb
REMARK  132 active torsions:
REMARK  status: ('A' for Active; 'I' for Inactive)
REMARK    1  A    between atoms: _1  and  _3
REMARK    2  A    between atoms: _3  and  _4
REMARK    3  A    between atoms: _3  and  _6
REMARK    4  A    between atoms: _6  and  _7
REMARK    5  A    between atoms: _13  and  _15
REMARK    6  A    between atoms: _15  and  _16
REMARK    7  A    between atoms: _19  and  _21
REMARK    8  A    between atoms: _21  and  _22
REMARK    9  A    between atoms: _21  and  _24
REMARK   10  A    between atoms: _24  and  _25
REMARK   11  A    between atoms: _36  and  _37
REMARK   12  A    between atoms: _42  and  _44
REMARK   13  A    between atoms: _44  and  _45
REMARK   14  A    between atoms: _44  and  _47
REMARK   15  A    between atoms: _47  and  _48
REMARK   16  A    between atoms: _54  and  _56
REMARK   17  A    between atoms: _56  and  _57
REMARK   18  A    between atoms: _56  and  _59
REMARK   19  A    between atoms: _59  and  _60
REMARK   20  A    between atoms: _60  and  _61
REMARK   21  A    between atoms: _61  and  _62
REMARK   22  A    between atoms: _71  and  _73
REMARK   23  A    between atoms: _73  and  _74
REMARK   24  A    between atoms: _73  and  _76
REMARK   25  A    between atoms: _76  and  _77
REMARK   26  A    between atoms: _77  and  _78
REMARK   27  A    between atoms: _84  and  _85
REMARK   28  A    between atoms: _90  and  _92
REMARK   29  A    between atoms: _92  and  _93
REMARK   30  A    between atoms: _92  and  _95
REMARK   31  A    between atoms: _98  and  _100
REMARK   32  A    between atoms: _100  and  _101
REMARK   33  A    between atoms: _100  and  _103
REMARK   34  A    between atoms: _103  and  _104
REMARK   35  A    between atoms: _107  and  _109
REMARK   36  A    between atoms: _109  and  _110
REMARK   37  A    between atoms: _113  and  _115
REMARK   38  A    between atoms: _115  and  _116
REMARK   39  A    between atoms: _115  and  _118
REMARK   40  A    between atoms: _118  and  _119
REMARK   41  A    between atoms: _119  and  _120
REMARK   42  A    between atoms: _120  and  _121
REMARK   43  A    between atoms: _121  and  _122
REMARK   44  A    between atoms: _126  and  _128
REMARK   45  A    between atoms: _128  and  _129
REMARK   46  A    between atoms: _128  and  _131
REMARK   47  A    between atoms: _131  and  _132
REMARK   48  A    between atoms: _135  and  _137
REMARK   49  A    between atoms: _137  and  _138
REMARK   50  A    between atoms: _137  and  _140
REMARK   51  A    between atoms: _140  and  _141
REMARK   52  A    between atoms: _144  and  _146
REMARK   53  A    between atoms: _146  and  _147
REMARK   54  A    between atoms: _146  and  _149
REMARK   55  A    between atoms: _149  and  _150
REMARK   56  A    between atoms: _155  and  _156
REMARK   57  A    between atoms: _158  and  _160
REMARK   58  A    between atoms: _160  and  _161
REMARK   59  A    between atoms: _160  and  _163
REMARK   60  A    between atoms: _163  and  _164
REMARK   61  A    between atoms: _167  and  _169
REMARK   62  A    between atoms: _169  and  _170
REMARK   63  A    between atoms: _169  and  _172
REMARK   64  A    between atoms: _172  and  _173
REMARK   65  A    between atoms: _173  and  _174
REMARK   66  A    between atoms: _176  and  _178
REMARK   67  A    between atoms: _178  and  _179
REMARK   68  A    between atoms: _178  and  _181
REMARK   69  A    between atoms: _181  and  _182
REMARK   70  A    between atoms: _185  and  _187
REMARK   71  A    between atoms: _187  and  _188
REMARK   72  A    between atoms: _187  and  _190
REMARK   73  A    between atoms: _190  and  _191
REMARK   74  A    between atoms: _191  and  _192
REMARK   75  A    between atoms: _194  and  _196
REMARK   76  A    between atoms: _196  and  _197
REMARK   77  A    between atoms: _196  and  _199
REMARK   78  A    between atoms: _199  and  _200
REMARK   79  A    between atoms: _206  and  _208
REMARK   80  A    between atoms: _208  and  _209
REMARK   81  A    between atoms: _208  and  _211
REMARK   82  A    between atoms: _211  and  _212
REMARK   83  A    between atoms: _217  and  _219
REMARK   84  A    between atoms: _219  and  _220
REMARK   85  A    between atoms: _219  and  _222
REMARK   86  A    between atoms: _224  and  _226
REMARK   87  A    between atoms: _226  and  _227
REMARK   88  A    between atoms: _226  and  _229
REMARK   89  A    between atoms: _229  and  _230
REMARK   90  A    between atoms: _235  and  _236
REMARK   91  A    between atoms: _238  and  _240
REMARK   92  A    between atoms: _240  and  _241
REMARK   93  A    between atoms: _240  and  _243
REMARK   94  A    between atoms: _243  and  _244
REMARK   95  A    between atoms: _247  and  _249
REMARK   96  A    between atoms: _249  and  _250
REMARK   97  A    between atoms: _249  and  _252
REMARK   98  A    between atoms: _252  and  _253
REMARK   99  A    between atoms: _258  and  _259
REMARK  100  A    between atoms: _261  and  _263
REMARK  101  A    between atoms: _263  and  _264
REMARK  102  A    between atoms: _263  and  _266
REMARK  103  A    between atoms: _266  and  _267
REMARK  104  A    between atoms: _272  and  _274
REMARK  105  A    between atoms: _274  and  _275
REMARK  106  A    between atoms: _274  and  _277
REMARK  107  A    between atoms: _277  and  _278
REMARK  108  A    between atoms: _278  and  _279
REMARK  109  A    between atoms: _279  and  _280
REMARK  110  A    between atoms: _280  and  _281
REMARK  111  A    between atoms: _285  and  _287
REMARK  112  A    between atoms: _287  and  _288
REMARK  113  A    between atoms: _287  and  _290
REMARK  114  A    between atoms: _290  and  _291
REMARK  115  A    between atoms: _294  and  _296
REMARK  116  A    between atoms: _296  and  _297
REMARK  117  A    between atoms: _296  and  _299
REMARK  118  A    between atoms: _299  and  _300
REMARK  119  A    between atoms: _303  and  _305
REMARK  120  A    between atoms: _305  and  _306
REMARK  121  A    between atoms: _305  and  _308
REMARK  122  A    between atoms: _308  and  _309
REMARK  123  A    between atoms: _312  and  _314
REMARK  124  A    between atoms: _314  and  _315
REMARK  125  A    between atoms: _314  and  _317
REMARK  126  A    between atoms: _320  and  _322
REMARK  127  A    between atoms: _322  and  _323
REMARK  128  A    between atoms: _322  and  _325
REMARK  129  A    between atoms: _325  and  _326
REMARK  130  A    between atoms: _326  and  _327
REMARK  131  A    between atoms: _329  and  _331
REMARK  132  A    between atoms: _331  and  _332
REMARK                            x       y       z     vdW  Elec       q    Type
REMARK                         _______ _______ _______ _____ _____    ______ ____
ROOT
ATOM      1  C   ILE A   4      29.727   5.468  -6.659  0.00  0.00    +0.241 C 
ATOM      2  N   TYR A   5      28.478   5.581  -7.109  0.00  0.00    -0.297 N 
ATOM      3  H   TYR A   5      27.698   5.685  -6.429  0.00  0.00    +0.150 HD
ATOM      4  O   ILE A   4      30.711   5.478  -7.411  0.00  0.00    -0.273 OA
ENDROOT
BRANCH   2   5
ATOM      5  CA  TYR A   5      28.184   5.562  -8.545  0.00  0.00    +0.153 C 
BRANCH   5   6
ATOM      6  C   TYR A   5      28.535   6.872  -9.251  0.00  0.00    +0.241 C 
ATOM      7  N   ASN A   6      28.150   7.991  -8.653  0.00  0.00    -0.297 N 
ATOM      8  H   ASN A   6      27.795   7.956  -7.676  0.00  0.00    +0.150 HD
ATOM      9  O   TYR A   5      29.116   6.870 -10.332  0.00  0.00    -0.273 OA
BRANCH   7  10
ATOM     10  CA  ASN A   6      28.218   9.263  -9.345  0.00  0.00    +0.158 C 
BRANCH  10  11
ATOM     11  C   ASN A   6      29.603   9.899  -9.298  0.00  0.00    +0.241 C 
ATOM     12  O   ASN A   6      30.455   9.509  -8.495  0.00  0.00    -0.273 OA
ATOM     13  N   LYS A   7      29.827  10.858 -10.191  0.00  0.00    -0.298 N 
ATOM     14  H   LYS A   7      29.093  11.074 -10.896  0.00  0.00    +0.150 HD
BRANCH  13  15
ATOM     15  CA  LYS A   7      31.073  11.616 -10.210  0.00  0.00    +0.137 C 
BRANCH  15  16
ATOM     16  C   LYS A   7      31.098  12.577  -9.023  0.00  0.00    +0.227 C 
ATOM     17  O   LYS A   7      30.046  13.091  -8.625  0.00  0.00    -0.286 OA
ENDBRANCH  15  16
BRANCH  15  18
ATOM     18  CB  LYS A   7      31.216  12.396 -11.517  0.00  0.00    +0.028 C 
BRANCH  18  19
ATOM     19  CG  LYS A   7      31.222  11.535 -12.771  0.00  0.00    -0.000 C 
BRANCH  19  20
ATOM     20  CD  LYS A   7      31.350  12.383 -14.026  0.00  0.00    -0.024 C 
BRANCH  20  21
ATOM     21  CE  LYS A   7      31.581  11.520 -15.256  0.00  0.00    -0.086 C 
BRANCH  21  22
ATOM     22  NZ  LYS A   7      31.200  12.223 -16.513  0.00  0.00    +0.380 N 
ATOM     23  HZ1 LYS A   7      30.191  12.473 -16.477  0.00  0.00    -0.089 HD
ATOM     24  HZ2 LYS A   7      31.769  13.088 -16.611  0.00  0.00    -0.089 HD
ATOM     25  HZ3 LYS A   7      31.374  11.597 -17.325  0.00  0.00    -0.089 HD
ENDBRANCH  21  22
ENDBRANCH  20  21
ENDBRANCH  19  20
ENDBRANCH  18  19
ENDBRANCH  15  18
ENDBRANCH  13  15
ENDBRANCH  10  11
BRANCH  10  26
ATOM     26  CB  ASN A   6      27.136  10.194  -8.785  0.00  0.00    +0.114 C 
BRANCH  26  27
ATOM     27  CG  ASN A   6      25.742   9.689  -9.094  0.00  0.00    +0.222 C 
ATOM     28  ND2 ASN A   6      25.071   9.125  -8.085  0.00  0.00    -0.329 N 
ATOM     29 HD21 ASN A   6      25.502   9.071  -7.140  0.00  0.00    +0.145 HD
ATOM     30 HD22 ASN A   6      24.118   8.740  -8.245  0.00  0.00    +0.145 HD
ATOM     31  OD1 ASN A   6      25.278   9.779 -10.236  0.00  0.00    -0.275 OA
ENDBRANCH  26  27
ENDBRANCH  10  26
ENDBRANCH   7  10
ENDBRANCH   5   6
BRANCH   5  32
ATOM     32  CB  TYR A   5      26.710   5.234  -8.828  0.00  0.00    +0.055 C 
BRANCH  32  33
ATOM     33  CG  TYR A   5      26.437   5.260 -10.313  0.00  0.00    -0.020 A 
ATOM     34  CD2 TYR A   5      25.835   6.360 -10.917  0.00  0.00    -0.001 A 
ATOM     35  CE2 TYR A   5      25.626   6.400 -12.289  0.00  0.00    +0.036 A 
ATOM     36  CZ  TYR A   5      26.039   5.340 -13.073  0.00  0.00    +0.134 A 
ATOM     37  CE1 TYR A   5      26.650   4.246 -12.493  0.00  0.00    +0.036 A 
ATOM     38  CD1 TYR A   5      26.850   4.213 -11.125  0.00  0.00    -0.001 A 
BRANCH  36  39
ATOM     39  OH  TYR A   5      25.847   5.358 -14.442  0.00  0.00    -0.506 OA
ATOM     40  HH  TYR A   5      26.203   4.522 -14.835  0.00  0.00    +0.292 HD
ENDBRANCH  36  39
ENDBRANCH  32  33
ENDBRANCH   5  32
ENDBRANCH   2   5
BRANCH   1  41
ATOM     41  CA  ILE A   4      29.916   5.379  -5.142  0.00  0.00    +0.149 C 
BRANCH  41  43
ATOM     42  C   TYR A   3      29.339   7.644  -4.441  0.00  0.00    +0.241 C 
ATOM     43  N   ILE A   4      29.073   6.343  -4.432  0.00  0.00    -0.297 N 
ATOM     44  H   ILE A   4      28.244   6.000  -3.907  0.00  0.00    +0.150 HD
ATOM     45  O   TYR A   3      30.270   8.136  -5.091  0.00  0.00    -0.273 OA
BRANCH  42  46
ATOM     46  CA  TYR A   3      28.408   8.526  -3.605  0.00  0.00    +0.153 C 
BRANCH  46  48
ATOM     47  C   CYS A   2      26.310   8.105  -4.776  0.00  0.00    +0.242 C 
ATOM     48  N   TYR A   3      27.024   8.040  -3.653  0.00  0.00    -0.297 N 
ATOM     49  H   TYR A   3      26.593   7.638  -2.796  0.00  0.00    +0.150 HD
ATOM     50  O   CYS A   2      26.772   8.526  -5.838  0.00  0.00    -0.273 OA
BRANCH  47  51
ATOM     51  CA  CYS A   2      24.864   7.614  -4.703  0.00  0.00    +0.160 C 
BRANCH  51  53
ATOM     52  C   ASN A   1      25.360   5.251  -4.453  0.00  0.00    +0.239 C 
ATOM     53  N   CYS A   2      24.756   6.348  -4.007  0.00  0.00    -0.296 N 
ATOM     54  H   CYS A   2      24.191   6.296  -3.135  0.00  0.00    +0.150 HD
ATOM     55  O   ASN A   1      26.050   5.233  -5.474  0.00  0.00    -0.274 OA
BRANCH  52  56
ATOM     56  CA  ASN A   1      25.146   4.006  -3.603  0.00  0.00    +0.154 C 
BRANCH  56  57
ATOM     57  N   ASN A   1      25.305   4.339  -2.181  0.00  0.00    -0.238 NA
ATOM     58  H   ASN A   1      24.542   4.101  -1.515  0.00  0.00    +0.142 HD
ENDBRANCH  56  57
BRANCH  56  59
ATOM     59  CB  ASN A   1      23.750   3.465  -3.905  0.00  0.00    +0.111 C 
BRANCH  59  60
ATOM     60  CG  ASN A   1      23.527   2.055  -3.396  0.00  0.00    +0.221 C 
ATOM     61  OD1 ASN A   1      24.462   1.343  -3.032  0.00  0.00    -0.275 OA
ATOM     62  ND2 ASN A   1      22.271   1.634  -3.396  0.00  0.00    -0.329 N 
ATOM     63 HD21 ASN A   1      22.046   0.669  -3.080  0.00  0.00    +0.145 HD
ATOM     64 HD22 ASN A   1      21.510   2.268  -3.712  0.00  0.00    +0.145 HD
ENDBRANCH  59  60
ENDBRANCH  56  59
ENDBRANCH  52  56
ENDBRANCH  51  53
BRANCH  51  65
ATOM     65  CB  CYS A   2      23.989   8.647  -4.004  0.00  0.00    +0.098 C 
ATOM     66  SG  CYS A   2      23.841  10.214  -4.868  0.00  0.00    -0.080 S 
ENDBRANCH  51  65
ENDBRANCH  47  51
ENDBRANCH  46  48
BRANCH  46  67
ATOM     67  CB  TYR A   3      28.914   8.588  -2.160  0.00  0.00    +0.055 C 
BRANCH  67  68
ATOM     68  CG  TYR A   3      28.066   9.432  -1.226  0.00  0.00    -0.020 A 
ATOM     69  CD2 TYR A   3      27.764   8.994   0.055  0.00  0.00    -0.001 A 
ATOM     70  CE2 TYR A   3      26.998   9.764   0.915  0.00  0.00    +0.036 A 
ATOM     71  CZ  TYR A   3      26.527  10.990   0.495  0.00  0.00    +0.134 A 
ATOM     72  CE1 TYR A   3      26.824  11.454  -0.770  0.00  0.00    +0.036 A 
ATOM     73  CD1 TYR A   3      27.590  10.681  -1.622  0.00  0.00    -0.001 A 
BRANCH  71  74
ATOM     74  OH  TYR A   3      25.762  11.737   1.363  0.00  0.00    -0.506 OA
ATOM     75  HH  TYR A   3      26.288  11.935   2.178  0.00  0.00    +0.292 HD
ENDBRANCH  71  74
ENDBRANCH  67  68
ENDBRANCH  46  67
ENDBRANCH  42  46
ENDBRANCH  41  43
BRANCH  41  76
ATOM     76  CB  ILE A   4      29.654   3.942  -4.636  0.00  0.00    +0.027 C 
ATOM     77  CG2 ILE A   4      30.268   2.916  -5.583  0.00  0.00    +0.002 C 
BRANCH  76  78
ATOM     78  CG1 ILE A   4      30.236   3.776  -3.228  0.00  0.00    +0.002 C 
ATOM     79  CD1 ILE A   4      29.844   2.478  -2.550  0.00  0.00    +0.000 C 
ENDBRANCH  76  78
ENDBRANCH  41  76
ENDBRANCH   1  41
TORSDOF 32
REMARK  Name = ../refined-set-2016/4uyf/4uyf_pocket.pdb
REMARK  132 active torsions:
REMARK  status: ('A' for Active; 'I' for Inactive)
REMARK    1  A    between atoms: _1  and  _3
REMARK    2  A    between atoms: _3  and  _4
REMARK    3  A    between atoms: _3  and  _6
REMARK    4  A    between atoms: _6  and  _7
REMARK    5  A    between atoms: _13  and  _15
REMARK    6  A    between atoms: _15  and  _16
REMARK    7  A    between atoms: _19  and  _21
REMARK    8  A    between atoms: _21  and  _22
REMARK    9  A    between atoms: _21  and  _24
REMARK   10  A    between atoms: _24  and  _25
REMARK   11  A    between atoms: _36  and  _37
REMARK   12  A    between atoms: _42  and  _44
REMARK   13  A    between atoms: _44  and  _45
REMARK   14  A    between atoms: _44  and  _47
REMARK   15  A    between atoms: _47  and  _48
REMARK   16  A    between atoms: _54  and  _56
REMARK   17  A    between atoms: _56  and  _57
REMARK   18  A    between atoms: _56  and  _59
REMARK   19  A    between atoms: _59  and  _60
REMARK   20  A    between atoms: _60  and  _61
REMARK   21  A    between atoms: _61  and  _62
REMARK   22  A    between atoms: _71  and  _73
REMARK   23  A    between atoms: _73  and  _74
REMARK   24  A    between atoms: _73  and  _76
REMARK   25  A    between atoms: _76  and  _77
REMARK   26  A    between atoms: _77  and  _78
REMARK   27  A    between atoms: _84  and  _85
REMARK   28  A    between atoms: _90  and  _92
REMARK   29  A    between atoms: _92  and  _93
REMARK   30  A    between atoms: _92  and  _95
REMARK   31  A    between atoms: _98  and  _100
REMARK   32  A    between atoms: _100  and  _101
REMARK   33  A    between atoms: _100  and  _103
REMARK   34  A    between atoms: _103  and  _104
REMARK   35  A    between atoms: _107  and  _109
REMARK   36  A    between atoms: _109  and  _110
REMARK   37  A    between atoms: _113  and  _115
REMARK   38  A    between atoms: _115  and  _116
REMARK   39  A    between atoms: _115  and  _118
REMARK   40  A    between atoms: _118  and  _119
REMARK   41  A    between atoms: _119  and  _120
REMARK   42  A    between atoms: _120  and  _121
REMARK   43  A    between atoms: _121  and  _122
REMARK   44  A    between atoms: _126  and  _128
REMARK   45  A    between atoms: _128  and  _129
REMARK   46  A    between atoms: _128  and  _131
REMARK   47  A    between atoms: _131  and  _132
REMARK   48  A    between atoms: _135  and  _137
REMARK   49  A    between atoms: _137  and  _138
REMARK   50  A    between atoms: _137  and  _140
REMARK   51  A    between atoms: _140  and  _141
REMARK   52  A    between atoms: _144  and  _146
REMARK   53  A    between atoms: _146  and  _147
REMARK   54  A    between atoms: _146  and  _149
REMARK   55  A    between atoms: _149  and  _150
REMARK   56  A    between atoms: _155  and  _156
REMARK   57  A    between atoms: _158  and  _160
REMARK   58  A    between atoms: _160  and  _161
REMARK   59  A    between atoms: _160  and  _163
REMARK   60  A    between atoms: _163  and  _164
REMARK   61  A    between atoms: _167  and  _169
REMARK   62  A    between atoms: _169  and  _170
REMARK   63  A    between atoms: _169  and  _172
REMARK   64  A    between atoms: _172  and  _173
REMARK   65  A    between atoms: _173  and  _174
REMARK   66  A    between atoms: _176  and  _178
REMARK   67  A    between atoms: _178  and  _179
REMARK   68  A    between atoms: _178  and  _181
REMARK   69  A    between atoms: _181  and  _182
REMARK   70  A    between atoms: _185  and  _187
REMARK   71  A    between atoms: _187  and  _188
REMARK   72  A    between atoms: _187  and  _190
REMARK   73  A    between atoms: _190  and  _191
REMARK   74  A    between atoms: _191  and  _192
REMARK   75  A    between atoms: _194  and  _196
REMARK   76  A    between atoms: _196  and  _197
REMARK   77  A    between atoms: _196  and  _199
REMARK   78  A    between atoms: _199  and  _200
REMARK   79  A    between atoms: _206  and  _208
REMARK   80  A    between atoms: _208  and  _209
REMARK   81  A    between atoms: _208  and  _211
REMARK   82  A    between atoms: _211  and  _212
REMARK   83  A    between atoms: _217  and  _219
REMARK   84  A    between atoms: _219  and  _220
REMARK   85  A    between atoms: _219  and  _222
REMARK   86  A    between atoms: _224  and  _226
REMARK   87  A    between atoms: _226  and  _227
REMARK   88  A    between atoms: _226  and  _229
REMARK   89  A    between atoms: _229  and  _230
REMARK   90  A    between atoms: _235  and  _236
REMARK   91  A    between atoms: _238  and  _240
REMARK   92  A    between atoms: _240  and  _241
REMARK   93  A    between atoms: _240  and  _243
REMARK   94  A    between atoms: _243  and  _244
REMARK   95  A    between atoms: _247  and  _249
REMARK   96  A    between atoms: _249  and  _250
REMARK   97  A    between atoms: _249  and  _252
REMARK   98  A    between atoms: _252  and  _253
REMARK   99  A    between atoms: _258  and  _259
REMARK  100  A    between atoms: _261  and  _263
REMARK  101  A    between atoms: _263  and  _264
REMARK  102  A    between atoms: _263  and  _266
REMARK  103  A    between atoms: _266  and  _267
REMARK  104  A    between atoms: _272  and  _274
REMARK  105  A    between atoms: _274  and  _275
REMARK  106  A    between atoms: _274  and  _277
REMARK  107  A    between atoms: _277  and  _278
REMARK  108  A    between atoms: _278  and  _279
REMARK  109  A    between atoms: _279  and  _280
REMARK  110  A    between atoms: _280  and  _281
REMARK  111  A    between atoms: _285  and  _287
REMARK  112  A    between atoms: _287  and  _288
REMARK  113  A    between atoms: _287  and  _290
REMARK  114  A    between atoms: _290  and  _291
REMARK  115  A    between atoms: _294  and  _296
REMARK  116  A    between atoms: _296  and  _297
REMARK  117  A    between atoms: _296  and  _299
REMARK  118  A    between atoms: _299  and  _300
REMARK  119  A    between atoms: _303  and  _305
REMARK  120  A    between atoms: _305  and  _306
REMARK  121  A    between atoms: _305  and  _308
REMARK  122  A    between atoms: _308  and  _309
REMARK  123  A    between atoms: _312  and  _314
REMARK  124  A    between atoms: _314  and  _315
REMARK  125  A    between atoms: _314  and  _317
REMARK  126  A    between atoms: _320  and  _322
REMARK  127  A    between atoms: _322  and  _323
REMARK  128  A    between atoms: _322  and  _325
REMARK  129  A    between atoms: _325  and  _326
REMARK  130  A    between atoms: _326  and  _327
REMARK  131  A    between atoms: _329  and  _331
REMARK  132  A    between atoms: _331  and  _332
REMARK                            x       y       z     vdW  Elec       q    Type
REMARK                         _______ _______ _______ _____ _____    ______ ____
ROOT
ATOM      1  C   ASP A   2      24.256  16.806  -7.204  0.00  0.00    +0.241 C 
ATOM      2  O   ASP A   2      23.951  17.124  -6.053  0.00  0.00    -0.273 OA
ATOM      3  N   ILE A   3      23.982  15.605  -7.713  0.00  0.00    -0.297 N 
ATOM      4  H   ILE A   3      24.291  15.375  -8.679  0.00  0.00    +0.150 HD
ENDROOT
BRANCH   1   5
ATOM      5  CA  ASP A   2      24.955  17.806  -8.119  0.00  0.00    +0.160 C 
BRANCH   5   8
ATOM      6  C   ASP A   1      26.890  16.410  -8.668  0.00  0.00    +0.239 C 
ATOM      7  O   ASP A   1      27.141  16.213  -7.480  0.00  0.00    -0.274 OA
ATOM      8  N   ASP A   2      25.872  17.170  -9.073  0.00  0.00    -0.297 N 
ATOM      9  H   ASP A   2      25.724  17.316 -10.092  0.00  0.00    +0.150 HD
BRANCH   6  10
ATOM     10  CA  ASP A   1      27.752  15.775  -9.759  0.00  0.00    +0.156 C 
BRANCH  10  11
ATOM     11  N   ASP A   1      29.174  15.832  -9.392  0.00  0.00    -0.238 NA
ATOM     12  H   ASP A   1      29.677  14.951  -9.163  0.00  0.00    +0.142 HD
ENDBRANCH  10  11
BRANCH  10  13
ATOM     13  CB  ASP A   1      27.294  14.327  -9.984  0.00  0.00    +0.140 C 
BRANCH  13  14
ATOM     14  CG  ASP A   1      27.785  13.740 -11.306  0.00  0.00    +0.367 C 
ATOM     15  OD2 ASP A   1      27.783  12.497 -11.432  0.00  0.00    -0.246 OA
ATOM     16  OD1 ASP A   1      28.165  14.502 -12.221  0.00  0.00    -0.246 OA
ENDBRANCH  13  14
ENDBRANCH  10  13
ENDBRANCH   6  10
ENDBRANCH   5   8
BRANCH   5  17
ATOM     17  CB  ASP A   2      23.868  18.597  -8.851  0.00  0.00    +0.143 C 
BRANCH  17  18
ATOM     18  CG  ASP A   2      24.400  19.808  -9.580  0.00  0.00    +0.367 C 
ATOM     19  OD2 ASP A   2      25.581  20.163  -9.423  0.00  0.00    -0.246 OA
ATOM     20  OD1 ASP A   2      23.602  20.410 -10.322  0.00  0.00    -0.246 OA
ENDBRANCH  17  18
ENDBRANCH   5  17
ENDBRANCH   1   5
BRANCH   3  21
ATOM     21  CA  ILE A   3      23.253  14.605  -6.933  0.00  0.00    +0.149 C 
BRANCH  21  22
ATOM     22  C   ILE A   3      24.020  14.233  -5.657  0.00  0.00    +0.241 C 
ATOM     23  O   ILE A   3      23.410  13.942  -4.623  0.00  0.00    -0.273 OA
ATOM     24  N   VAL A   4      25.349  14.285  -5.716  0.00  0.00    -0.298 N 
ATOM     25  H   VAL A   4      25.806  14.508  -6.623  0.00  0.00    +0.150 HD
BRANCH  24  26
ATOM     26  CA  VAL A   4      26.186  14.037  -4.541  0.00  0.00    +0.137 C 
BRANCH  26  27
ATOM     27  CB  VAL A   4      27.686  13.986  -4.914  0.00  0.00    +0.026 C 
ATOM     28  CG2 VAL A   4      28.561  14.024  -3.673  0.00  0.00    +0.002 C 
ATOM     29  CG1 VAL A   4      27.975  12.737  -5.737  0.00  0.00    +0.002 C 
ENDBRANCH  26  27
BRANCH  26  30
ATOM     30  C   VAL A   4      25.923  15.078  -3.445  0.00  0.00    +0.227 C 
ATOM     31  O   VAL A   4      25.778  14.721  -2.278  0.00  0.00    -0.286 OA
ENDBRANCH  26  30
ENDBRANCH  24  26
ENDBRANCH  21  22
BRANCH  21  32
ATOM     32  CB  ILE A   3      22.921  13.356  -7.786  0.00  0.00    +0.027 C 
ATOM     33  CG2 ILE A   3      24.187  12.581  -8.137  0.00  0.00    +0.002 C 
BRANCH  32  34
ATOM     34  CG1 ILE A   3      21.918  12.437  -7.074  0.00  0.00    +0.002 C 
ATOM     35  CD1 ILE A   3      20.541  13.041  -6.889  0.00  0.00    +0.000 C 
ENDBRANCH  32  34
ENDBRANCH  21  32
ENDBRANCH   3  21
TORSDOF 15
REMARK  Name = ../refined-set-2016/4uyf/4uyf_pocket.pdb
REMARK  132 active torsions:
REMARK  status: ('A' for Active; 'I' for Inactive)
REMARK    1  A    between atoms: _1  and  _3
REMARK    2  A    between atoms: _3  and  _4
REMARK    3  A    between atoms: _3  and  _6
REMARK    4  A    between atoms: _6  and  _7
REMARK    5  A    between atoms: _13  and  _15
REMARK    6  A    between atoms: _15  and  _16
REMARK    7  A    between atoms: _19  and  _21
REMARK    8  A    between atoms: _21  and  _22
REMARK    9  A    between atoms: _21  and  _24
REMARK   10  A    between atoms: _24  and  _25
REMARK   11  A    between atoms: _36  and  _37
REMARK   12  A    between atoms: _42  and  _44
REMARK   13  A    between atoms: _44  and  _45
REMARK   14  A    between atoms: _44  and  _47
REMARK   15  A    between atoms: _47  and  _48
REMARK   16  A    between atoms: _54  and  _56
REMARK   17  A    between atoms: _56  and  _57
REMARK   18  A    between atoms: _56  and  _59
REMARK   19  A    between atoms: _59  and  _60
REMARK   20  A    between atoms: _60  and  _61
REMARK   21  A    between atoms: _61  and  _62
REMARK   22  A    between atoms: _71  and  _73
REMARK   23  A    between atoms: _73  and  _74
REMARK   24  A    between atoms: _73  and  _76
REMARK   25  A    between atoms: _76  and  _77
REMARK   26  A    between atoms: _77  and  _78
REMARK   27  A    between atoms: _84  and  _85
REMARK   28  A    between atoms: _90  and  _92
REMARK   29  A    between atoms: _92  and  _93
REMARK   30  A    between atoms: _92  and  _95
REMARK   31  A    between atoms: _98  and  _100
REMARK   32  A    between atoms: _100  and  _101
REMARK   33  A    between atoms: _100  and  _103
REMARK   34  A    between atoms: _103  and  _104
REMARK   35  A    between atoms: _107  and  _109
REMARK   36  A    between atoms: _109  and  _110
REMARK   37  A    between atoms: _113  and  _115
REMARK   38  A    between atoms: _115  and  _116
REMARK   39  A    between atoms: _115  and  _118
REMARK   40  A    between atoms: _118  and  _119
REMARK   41  A    between atoms: _119  and  _120
REMARK   42  A    between atoms: _120  and  _121
REMARK   43  A    between atoms: _121  and  _122
REMARK   44  A    between atoms: _126  and  _128
REMARK   45  A    between atoms: _128  and  _129
REMARK   46  A    between atoms: _128  and  _131
REMARK   47  A    between atoms: _131  and  _132
REMARK   48  A    between atoms: _135  and  _137
REMARK   49  A    between atoms: _137  and  _138
REMARK   50  A    between atoms: _137  and  _140
REMARK   51  A    between atoms: _140  and  _141
REMARK   52  A    between atoms: _144  and  _146
REMARK   53  A    between atoms: _146  and  _147
REMARK   54  A    between atoms: _146  and  _149
REMARK   55  A    between atoms: _149  and  _150
REMARK   56  A    between atoms: _155  and  _156
REMARK   57  A    between atoms: _158  and  _160
REMARK   58  A    between atoms: _160  and  _161
REMARK   59  A    between atoms: _160  and  _163
REMARK   60  A    between atoms: _163  and  _164
REMARK   61  A    between atoms: _167  and  _169
REMARK   62  A    between atoms: _169  and  _170
REMARK   63  A    between atoms: _169  and  _172
REMARK   64  A    between atoms: _172  and  _173
REMARK   65  A    between atoms: _173  and  _174
REMARK   66  A    between atoms: _176  and  _178
REMARK   67  A    between atoms: _178  and  _179
REMARK   68  A    between atoms: _178  and  _181
REMARK   69  A    between atoms: _181  and  _182
REMARK   70  A    between atoms: _185  and  _187
REMARK   71  A    between atoms: _187  and  _188
REMARK   72  A    between atoms: _187  and  _190
REMARK   73  A    between atoms: _190  and  _191
REMARK   74  A    between atoms: _191  and  _192
REMARK   75  A    between atoms: _194  and  _196
REMARK   76  A    between atoms: _196  and  _197
REMARK   77  A    between atoms: _196  and  _199
REMARK   78  A    between atoms: _199  and  _200
REMARK   79  A    between atoms: _206  and  _208
REMARK   80  A    between atoms: _208  and  _209
REMARK   81  A    between atoms: _208  and  _211
REMARK   82  A    between atoms: _211  and  _212
REMARK   83  A    between atoms: _217  and  _219
REMARK   84  A    between atoms: _219  and  _220
REMARK   85  A    between atoms: _219  and  _222
REMARK   86  A    between atoms: _224  and  _226
REMARK   87  A    between atoms: _226  and  _227
REMARK   88  A    between atoms: _226  and  _229
REMARK   89  A    between atoms: _229  and  _230
REMARK   90  A    between atoms: _235  and  _236
REMARK   91  A    between atoms: _238  and  _240
REMARK   92  A    between atoms: _240  and  _241
REMARK   93  A    between atoms: _240  and  _243
REMARK   94  A    between atoms: _243  and  _244
REMARK   95  A    between atoms: _247  and  _249
REMARK   96  A    between atoms: _249  and  _250
REMARK   97  A    between atoms: _249  and  _252
REMARK   98  A    between atoms: _252  and  _253
REMARK   99  A    between atoms: _258  and  _259
REMARK  100  A    between atoms: _261  and  _263
REMARK  101  A    between atoms: _263  and  _264
REMARK  102  A    between atoms: _263  and  _266
REMARK  103  A    between atoms: _266  and  _267
REMARK  104  A    between atoms: _272  and  _274
REMARK  105  A    between atoms: _274  and  _275
REMARK  106  A    between atoms: _274  and  _277
REMARK  107  A    between atoms: _277  and  _278
REMARK  108  A    between atoms: _278  and  _279
REMARK  109  A    between atoms: _279  and  _280
REMARK  110  A    between atoms: _280  and  _281
REMARK  111  A    between atoms: _285  and  _287
REMARK  112  A    between atoms: _287  and  _288
REMARK  113  A    between atoms: _287  and  _290
REMARK  114  A    between atoms: _290  and  _291
REMARK  115  A    between atoms: _294  and  _296
REMARK  116  A    between atoms: _296  and  _297
REMARK  117  A    between atoms: _296  and  _299
REMARK  118  A    between atoms: _299  and  _300
REMARK  119  A    between atoms: _303  and  _305
REMARK  120  A    between atoms: _305  and  _306
REMARK  121  A    between atoms: _305  and  _308
REMARK  122  A    between atoms: _308  and  _309
REMARK  123  A    between atoms: _312  and  _314
REMARK  124  A    between atoms: _314  and  _315
REMARK  125  A    between atoms: _314  and  _317
REMARK  126  A    between atoms: _320  and  _322
REMARK  127  A    between atoms: _322  and  _323
REMARK  128  A    between atoms: _322  and  _325
REMARK  129  A    between atoms: _325  and  _326
REMARK  130  A    between atoms: _326  and  _327
REMARK  131  A    between atoms: _329  and  _331
REMARK  132  A    between atoms: _331  and  _332
REMARK                            x       y       z     vdW  Elec       q    Type
REMARK                         _______ _______ _______ _____ _____    ______ ____
ROOT
ATOM      1  C   MET A   1      21.738  15.512  -1.648  0.00  0.00    +0.238 C 
ATOM      2  O   MET A   1      21.122  15.666  -0.587  0.00  0.00    -0.274 OA
ATOM      3  N   ALA A   2      22.412  14.400  -1.940  0.00  0.00    -0.298 N 
ATOM      4  H   ALA A   2      22.875  14.319  -2.868  0.00  0.00    +0.150 HD
ENDROOT
BRANCH   3   5
ATOM      5  CA  ALA A   2      22.520  13.286  -0.990  0.00  0.00    +0.137 C 
ATOM      6  CB  ALA A   2      23.319  12.139  -1.604  0.00  0.00    +0.030 C 
BRANCH   5   7
ATOM      7  C   ALA A   2      23.151  13.728   0.336  0.00  0.00    +0.227 C 
ATOM      8  O   ALA A   2      22.638  13.395   1.406  0.00  0.00    -0.286 OA
ENDBRANCH   5   7
ENDBRANCH   3   5
BRANCH   1   9
ATOM      9  CA  MET A   1      21.807  16.641  -2.683  0.00  0.00    +0.146 C 
BRANCH   9  10
ATOM     10  N   MET A   1      23.183  16.842  -3.123  0.00  0.00    -0.238 NA
ATOM     11  H   MET A   1      23.436  16.614  -4.106  0.00  0.00    +0.142 HD
ENDBRANCH   9  10
BRANCH   9  12
ATOM     12  CB  MET A   1      20.908  16.355  -3.891  0.00  0.00    +0.038 C 
BRANCH  12  13
ATOM     13  CG  MET A   1      20.839  17.525  -4.872  0.00  0.00    +0.060 C 
BRANCH  13  14
ATOM     14  SD  MET A   1      20.060  17.095  -6.433  0.00  0.00    -0.139 S 
ATOM     15  CE  MET A   1      18.325  17.194  -5.987  0.00  0.00    +0.069 C 
ENDBRANCH  13  14
ENDBRANCH  12  13
ENDBRANCH   9  12
ENDBRANCH   1   9
TORSDOF 7
REMARK  Name = ../refined-set-2016/4uyf/4uyf_pocket.pdb
REMARK  132 active torsions:
REMARK  status: ('A' for Active; 'I' for Inactive)
REMARK    1  A    between atoms: _1  and  _3
REMARK    2  A    between atoms: _3  and  _4
REMARK    3  A    between atoms: _3  and  _6
REMARK    4  A    between atoms: _6  and  _7
REMARK    5  A    between atoms: _13  and  _15
REMARK    6  A    between atoms: _15  and  _16
REMARK    7  A    between atoms: _19  and  _21
REMARK    8  A    between atoms: _21  and  _22
REMARK    9  A    between atoms: _21  and  _24
REMARK   10  A    between atoms: _24  and  _25
REMARK   11  A    between atoms: _36  and  _37
REMARK   12  A    between atoms: _42  and  _44
REMARK   13  A    between atoms: _44  and  _45
REMARK   14  A    between atoms: _44  and  _47
REMARK   15  A    between atoms: _47  and  _48
REMARK   16  A    between atoms: _54  and  _56
REMARK   17  A    between atoms: _56  and  _57
REMARK   18  A    between atoms: _56  and  _59
REMARK   19  A    between atoms: _59  and  _60
REMARK   20  A    between atoms: _60  and  _61
REMARK   21  A    between atoms: _61  and  _62
REMARK   22  A    between atoms: _71  and  _73
REMARK   23  A    between atoms: _73  and  _74
REMARK   24  A    between atoms: _73  and  _76
REMARK   25  A    between atoms: _76  and  _77
REMARK   26  A    between atoms: _77  and  _78
REMARK   27  A    between atoms: _84  and  _85
REMARK   28  A    between atoms: _90  and  _92
REMARK   29  A    between atoms: _92  and  _93
REMARK   30  A    between atoms: _92  and  _95
REMARK   31  A    between atoms: _98  and  _100
REMARK   32  A    between atoms: _100  and  _101
REMARK   33  A    between atoms: _100  and  _103
REMARK   34  A    between atoms: _103  and  _104
REMARK   35  A    between atoms: _107  and  _109
REMARK   36  A    between atoms: _109  and  _110
REMARK   37  A    between atoms: _113  and  _115
REMARK   38  A    between atoms: _115  and  _116
REMARK   39  A    between atoms: _115  and  _118
REMARK   40  A    between atoms: _118  and  _119
REMARK   41  A    between atoms: _119  and  _120
REMARK   42  A    between atoms: _120  and  _121
REMARK   43  A    between atoms: _121  and  _122
REMARK   44  A    between atoms: _126  and  _128
REMARK   45  A    between atoms: _128  and  _129
REMARK   46  A    between atoms: _128  and  _131
REMARK   47  A    between atoms: _131  and  _132
REMARK   48  A    between atoms: _135  and  _137
REMARK   49  A    between atoms: _137  and  _138
REMARK   50  A    between atoms: _137  and  _140
REMARK   51  A    between atoms: _140  and  _141
REMARK   52  A    between atoms: _144  and  _146
REMARK   53  A    between atoms: _146  and  _147
REMARK   54  A    between atoms: _146  and  _149
REMARK   55  A    between atoms: _149  and  _150
REMARK   56  A    between atoms: _155  and  _156
REMARK   57  A    between atoms: _158  and  _160
REMARK   58  A    between atoms: _160  and  _161
REMARK   59  A    between atoms: _160  and  _163
REMARK   60  A    between atoms: _163  and  _164
REMARK   61  A    between atoms: _167  and  _169
REMARK   62  A    between atoms: _169  and  _170
REMARK   63  A    between atoms: _169  and  _172
REMARK   64  A    between atoms: _172  and  _173
REMARK   65  A    between atoms: _173  and  _174
REMARK   66  A    between atoms: _176  and  _178
REMARK   67  A    between atoms: _178  and  _179
REMARK   68  A    between atoms: _178  and  _181
REMARK   69  A    between atoms: _181  and  _182
REMARK   70  A    between atoms: _185  and  _187
REMARK   71  A    between atoms: _187  and  _188
REMARK   72  A    between atoms: _187  and  _190
REMARK   73  A    between atoms: _190  and  _191
REMARK   74  A    between atoms: _191  and  _192
REMARK   75  A    between atoms: _194  and  _196
REMARK   76  A    between atoms: _196  and  _197
REMARK   77  A    between atoms: _196  and  _199
REMARK   78  A    between atoms: _199  and  _200
REMARK   79  A    between atoms: _206  and  _208
REMARK   80  A    between atoms: _208  and  _209
REMARK   81  A    between atoms: _208  and  _211
REMARK   82  A    between atoms: _211  and  _212
REMARK   83  A    between atoms: _217  and  _219
REMARK   84  A    between atoms: _219  and  _220
REMARK   85  A    between atoms: _219  and  _222
REMARK   86  A    between atoms: _224  and  _226
REMARK   87  A    between atoms: _226  and  _227
REMARK   88  A    between atoms: _226  and  _229
REMARK   89  A    between atoms: _229  and  _230
REMARK   90  A    between atoms: _235  and  _236
REMARK   91  A    between atoms: _238  and  _240
REMARK   92  A    between atoms: _240  and  _241
REMARK   93  A    between atoms: _240  and  _243
REMARK   94  A    between atoms: _243  and  _244
REMARK   95  A    between atoms: _247  and  _249
REMARK   96  A    between atoms: _249  and  _250
REMARK   97  A    between atoms: _249  and  _252
REMARK   98  A    between atoms: _252  and  _253
REMARK   99  A    between atoms: _258  and  _259
REMARK  100  A    between atoms: _261  and  _263
REMARK  101  A    between atoms: _263  and  _264
REMARK  102  A    between atoms: _263  and  _266
REMARK  103  A    between atoms: _266  and  _267
REMARK  104  A    between atoms: _272  and  _274
REMARK  105  A    between atoms: _274  and  _275
REMARK  106  A    between atoms: _274  and  _277
REMARK  107  A    between atoms: _277  and  _278
REMARK  108  A    between atoms: _278  and  _279
REMARK  109  A    between atoms: _279  and  _280
REMARK  110  A    between atoms: _280  and  _281
REMARK  111  A    between atoms: _285  and  _287
REMARK  112  A    between atoms: _287  and  _288
REMARK  113  A    between atoms: _287  and  _290
REMARK  114  A    between atoms: _290  and  _291
REMARK  115  A    between atoms: _294  and  _296
REMARK  116  A    between atoms: _296  and  _297
REMARK  117  A    between atoms: _296  and  _299
REMARK  118  A    between atoms: _299  and  _300
REMARK  119  A    between atoms: _303  and  _305
REMARK  120  A    between atoms: _305  and  _306
REMARK  121  A    between atoms: _305  and  _308
REMARK  122  A    between atoms: _308  and  _309
REMARK  123  A    between atoms: _312  and  _314
REMARK  124  A    between atoms: _314  and  _315
REMARK  125  A    between atoms: _314  and  _317
REMARK  126  A    between atoms: _320  and  _322
REMARK  127  A    between atoms: _322  and  _323
REMARK  128  A    between atoms: _322  and  _325
REMARK  129  A    between atoms: _325  and  _326
REMARK  130  A    between atoms: _326  and  _327
REMARK  131  A    between atoms: _329  and  _331
REMARK  132  A    between atoms: _331  and  _332
REMARK                            x       y       z     vdW  Elec       q    Type
REMARK                         _______ _______ _______ _____ _____    ______ ____
ROOT
ATOM      1  O   HOH     1       9.890  14.591 -17.560  0.00  0.00    +0.000 OA
ENDROOT
TORSDOF 0
REMARK  Name = ../refined-set-2016/4uyf/4uyf_pocket.pdb
REMARK  132 active torsions:
REMARK  status: ('A' for Active; 'I' for Inactive)
REMARK    1  A    between atoms: _1  and  _3
REMARK    2  A    between atoms: _3  and  _4
REMARK    3  A    between atoms: _3  and  _6
REMARK    4  A    between atoms: _6  and  _7
REMARK    5  A    between atoms: _13  and  _15
REMARK    6  A    between atoms: _15  and  _16
REMARK    7  A    between atoms: _19  and  _21
REMARK    8  A    between atoms: _21  and  _22
REMARK    9  A    between atoms: _21  and  _24
REMARK   10  A    between atoms: _24  and  _25
REMARK   11  A    between atoms: _36  and  _37
REMARK   12  A    between atoms: _42  and  _44
REMARK   13  A    between atoms: _44  and  _45
REMARK   14  A    between atoms: _44  and  _47
REMARK   15  A    between atoms: _47  and  _48
REMARK   16  A    between atoms: _54  and  _56
REMARK   17  A    between atoms: _56  and  _57
REMARK   18  A    between atoms: _56  and  _59
REMARK   19  A    between atoms: _59  and  _60
REMARK   20  A    between atoms: _60  and  _61
REMARK   21  A    between atoms: _61  and  _62
REMARK   22  A    between atoms: _71  and  _73
REMARK   23  A    between atoms: _73  and  _74
REMARK   24  A    between atoms: _73  and  _76
REMARK   25  A    between atoms: _76  and  _77
REMARK   26  A    between atoms: _77  and  _78
REMARK   27  A    between atoms: _84  and  _85
REMARK   28  A    between atoms: _90  and  _92
REMARK   29  A    between atoms: _92  and  _93
REMARK   30  A    between atoms: _92  and  _95
REMARK   31  A    between atoms: _98  and  _100
REMARK   32  A    between atoms: _100  and  _101
REMARK   33  A    between atoms: _100  and  _103
REMARK   34  A    between atoms: _103  and  _104
REMARK   35  A    between atoms: _107  and  _109
REMARK   36  A    between atoms: _109  and  _110
REMARK   37  A    between atoms: _113  and  _115
REMARK   38  A    between atoms: _115  and  _116
REMARK   39  A    between atoms: _115  and  _118
REMARK   40  A    between atoms: _118  and  _119
REMARK   41  A    between atoms: _119  and  _120
REMARK   42  A    between atoms: _120  and  _121
REMARK   43  A    between atoms: _121  and  _122
REMARK   44  A    between atoms: _126  and  _128
REMARK   45  A    between atoms: _128  and  _129
REMARK   46  A    between atoms: _128  and  _131
REMARK   47  A    between atoms: _131  and  _132
REMARK   48  A    between atoms: _135  and  _137
REMARK   49  A    between atoms: _137  and  _138
REMARK   50  A    between atoms: _137  and  _140
REMARK   51  A    between atoms: _140  and  _141
REMARK   52  A    between atoms: _144  and  _146
REMARK   53  A    between atoms: _146  and  _147
REMARK   54  A    between atoms: _146  and  _149
REMARK   55  A    between atoms: _149  and  _150
REMARK   56  A    between atoms: _155  and  _156
REMARK   57  A    between atoms: _158  and  _160
REMARK   58  A    between atoms: _160  and  _161
REMARK   59  A    between atoms: _160  and  _163
REMARK   60  A    between atoms: _163  and  _164
REMARK   61  A    between atoms: _167  and  _169
REMARK   62  A    between atoms: _169  and  _170
REMARK   63  A    between atoms: _169  and  _172
REMARK   64  A    between atoms: _172  and  _173
REMARK   65  A    between atoms: _173  and  _174
REMARK   66  A    between atoms: _176  and  _178
REMARK   67  A    between atoms: _178  and  _179
REMARK   68  A    between atoms: _178  and  _181
REMARK   69  A    between atoms: _181  and  _182
REMARK   70  A    between atoms: _185  and  _187
REMARK   71  A    between atoms: _187  and  _188
REMARK   72  A    between atoms: _187  and  _190
REMARK   73  A    between atoms: _190  and  _191
REMARK   74  A    between atoms: _191  and  _192
REMARK   75  A    between atoms: _194  and  _196
REMARK   76  A    between atoms: _196  and  _197
REMARK   77  A    between atoms: _196  and  _199
REMARK   78  A    between atoms: _199  and  _200
REMARK   79  A    between atoms: _206  and  _208
REMARK   80  A    between atoms: _208  and  _209
REMARK   81  A    between atoms: _208  and  _211
REMARK   82  A    between atoms: _211  and  _212
REMARK   83  A    between atoms: _217  and  _219
REMARK   84  A    between atoms: _219  and  _220
REMARK   85  A    between atoms: _219  and  _222
REMARK   86  A    between atoms: _224  and  _226
REMARK   87  A    between atoms: _226  and  _227
REMARK   88  A    between atoms: _226  and  _229
REMARK   89  A    between atoms: _229  and  _230
REMARK   90  A    between atoms: _235  and  _236
REMARK   91  A    between atoms: _238  and  _240
REMARK   92  A    between atoms: _240  and  _241
REMARK   93  A    between atoms: _240  and  _243
REMARK   94  A    between atoms: _243  and  _244
REMARK   95  A    between atoms: _247  and  _249
REMARK   96  A    between atoms: _249  and  _250
REMARK   97  A    between atoms: _249  and  _252
REMARK   98  A    between atoms: _252  and  _253
REMARK   99  A    between atoms: _258  and  _259
REMARK  100  A    between atoms: _261  and  _263
REMARK  101  A    between atoms: _263  and  _264
REMARK  102  A    between atoms: _263  and  _266
REMARK  103  A    between atoms: _266  and  _267
REMARK  104  A    between atoms: _272  and  _274
REMARK  105  A    between atoms: _274  and  _275
REMARK  106  A    between atoms: _274  and  _277
REMARK  107  A    between atoms: _277  and  _278
REMARK  108  A    between atoms: _278  and  _279
REMARK  109  A    between atoms: _279  and  _280
REMARK  110  A    between atoms: _280  and  _281
REMARK  111  A    between atoms: _285  and  _287
REMARK  112  A    between atoms: _287  and  _288
REMARK  113  A    between atoms: _287  and  _290
REMARK  114  A    between atoms: _290  and  _291
REMARK  115  A    between atoms: _294  and  _296
REMARK  116  A    between atoms: _296  and  _297
REMARK  117  A    between atoms: _296  and  _299
REMARK  118  A    between atoms: _299  and  _300
REMARK  119  A    between atoms: _303  and  _305
REMARK  120  A    between atoms: _305  and  _306
REMARK  121  A    between atoms: _305  and  _308
REMARK  122  A    between atoms: _308  and  _309
REMARK  123  A    between atoms: _312  and  _314
REMARK  124  A    between atoms: _314  and  _315
REMARK  125  A    between atoms: _314  and  _317
REMARK  126  A    between atoms: _320  and  _322
REMARK  127  A    between atoms: _322  and  _323
REMARK  128  A    between atoms: _322  and  _325
REMARK  129  A    between atoms: _325  and  _326
REMARK  130  A    between atoms: _326  and  _327
REMARK  131  A    between atoms: _329  and  _331
REMARK  132  A    between atoms: _331  and  _332
REMARK                            x       y       z     vdW  Elec       q    Type
REMARK                         _______ _______ _______ _____ _____    ______ ____
ROOT
ATOM      1  O   HOH     1       8.403  16.147 -12.355  0.00  0.00    +0.000 OA
ENDROOT
TORSDOF 0
REMARK  Name = ../refined-set-2016/4uyf/4uyf_pocket.pdb
REMARK  132 active torsions:
REMARK  status: ('A' for Active; 'I' for Inactive)
REMARK    1  A    between atoms: _1  and  _3
REMARK    2  A    between atoms: _3  and  _4
REMARK    3  A    between atoms: _3  and  _6
REMARK    4  A    between atoms: _6  and  _7
REMARK    5  A    between atoms: _13  and  _15
REMARK    6  A    between atoms: _15  and  _16
REMARK    7  A    between atoms: _19  and  _21
REMARK    8  A    between atoms: _21  and  _22
REMARK    9  A    between atoms: _21  and  _24
REMARK   10  A    between atoms: _24  and  _25
REMARK   11  A    between atoms: _36  and  _37
REMARK   12  A    between atoms: _42  and  _44
REMARK   13  A    between atoms: _44  and  _45
REMARK   14  A    between atoms: _44  and  _47
REMARK   15  A    between atoms: _47  and  _48
REMARK   16  A    between atoms: _54  and  _56
REMARK   17  A    between atoms: _56  and  _57
REMARK   18  A    between atoms: _56  and  _59
REMARK   19  A    between atoms: _59  and  _60
REMARK   20  A    between atoms: _60  and  _61
REMARK   21  A    between atoms: _61  and  _62
REMARK   22  A    between atoms: _71  and  _73
REMARK   23  A    between atoms: _73  and  _74
REMARK   24  A    between atoms: _73  and  _76
REMARK   25  A    between atoms: _76  and  _77
REMARK   26  A    between atoms: _77  and  _78
REMARK   27  A    between atoms: _84  and  _85
REMARK   28  A    between atoms: _90  and  _92
REMARK   29  A    between atoms: _92  and  _93
REMARK   30  A    between atoms: _92  and  _95
REMARK   31  A    between atoms: _98  and  _100
REMARK   32  A    between atoms: _100  and  _101
REMARK   33  A    between atoms: _100  and  _103
REMARK   34  A    between atoms: _103  and  _104
REMARK   35  A    between atoms: _107  and  _109
REMARK   36  A    between atoms: _109  and  _110
REMARK   37  A    between atoms: _113  and  _115
REMARK   38  A    between atoms: _115  and  _116
REMARK   39  A    between atoms: _115  and  _118
REMARK   40  A    between atoms: _118  and  _119
REMARK   41  A    between atoms: _119  and  _120
REMARK   42  A    between atoms: _120  and  _121
REMARK   43  A    between atoms: _121  and  _122
REMARK   44  A    between atoms: _126  and  _128
REMARK   45  A    between atoms: _128  and  _129
REMARK   46  A    between atoms: _128  and  _131
REMARK   47  A    between atoms: _131  and  _132
REMARK   48  A    between atoms: _135  and  _137
REMARK   49  A    between atoms: _137  and  _138
REMARK   50  A    between atoms: _137  and  _140
REMARK   51  A    between atoms: _140  and  _141
REMARK   52  A    between atoms: _144  and  _146
REMARK   53  A    between atoms: _146  and  _147
REMARK   54  A    between atoms: _146  and  _149
REMARK   55  A    between atoms: _149  and  _150
REMARK   56  A    between atoms: _155  and  _156
REMARK   57  A    between atoms: _158  and  _160
REMARK   58  A    between atoms: _160  and  _161
REMARK   59  A    between atoms: _160  and  _163
REMARK   60  A    between atoms: _163  and  _164
REMARK   61  A    between atoms: _167  and  _169
REMARK   62  A    between atoms: _169  and  _170
REMARK   63  A    between atoms: _169  and  _172
REMARK   64  A    between atoms: _172  and  _173
REMARK   65  A    between atoms: _173  and  _174
REMARK   66  A    between atoms: _176  and  _178
REMARK   67  A    between atoms: _178  and  _179
REMARK   68  A    between atoms: _178  and  _181
REMARK   69  A    between atoms: _181  and  _182
REMARK   70  A    between atoms: _185  and  _187
REMARK   71  A    between atoms: _187  and  _188
REMARK   72  A    between atoms: _187  and  _190
REMARK   73  A    between atoms: _190  and  _191
REMARK   74  A    between atoms: _191  and  _192
REMARK   75  A    between atoms: _194  and  _196
REMARK   76  A    between atoms: _196  and  _197
REMARK   77  A    between atoms: _196  and  _199
REMARK   78  A    between atoms: _199  and  _200
REMARK   79  A    between atoms: _206  and  _208
REMARK   80  A    between atoms: _208  and  _209
REMARK   81  A    between atoms: _208  and  _211
REMARK   82  A    between atoms: _211  and  _212
REMARK   83  A    between atoms: _217  and  _219
REMARK   84  A    between atoms: _219  and  _220
REMARK   85  A    between atoms: _219  and  _222
REMARK   86  A    between atoms: _224  and  _226
REMARK   87  A    between atoms: _226  and  _227
REMARK   88  A    between atoms: _226  and  _229
REMARK   89  A    between atoms: _229  and  _230
REMARK   90  A    between atoms: _235  and  _236
REMARK   91  A    between atoms: _238  and  _240
REMARK   92  A    between atoms: _240  and  _241
REMARK   93  A    between atoms: _240  and  _243
REMARK   94  A    between atoms: _243  and  _244
REMARK   95  A    between atoms: _247  and  _249
REMARK   96  A    between atoms: _249  and  _250
REMARK   97  A    between atoms: _249  and  _252
REMARK   98  A    between atoms: _252  and  _253
REMARK   99  A    between atoms: _258  and  _259
REMARK  100  A    between atoms: _261  and  _263
REMARK  101  A    between atoms: _263  and  _264
REMARK  102  A    between atoms: _263  and  _266
REMARK  103  A    between atoms: _266  and  _267
REMARK  104  A    between atoms: _272  and  _274
REMARK  105  A    between atoms: _274  and  _275
REMARK  106  A    between atoms: _274  and  _277
REMARK  107  A    between atoms: _277  and  _278
REMARK  108  A    between atoms: _278  and  _279
REMARK  109  A    between atoms: _279  and  _280
REMARK  110  A    between atoms: _280  and  _281
REMARK  111  A    between atoms: _285  and  _287
REMARK  112  A    between atoms: _287  and  _288
REMARK  113  A    between atoms: _287  and  _290
REMARK  114  A    between atoms: _290  and  _291
REMARK  115  A    between atoms: _294  and  _296
REMARK  116  A    between atoms: _296  and  _297
REMARK  117  A    between atoms: _296  and  _299
REMARK  118  A    between atoms: _299  and  _300
REMARK  119  A    between atoms: _303  and  _305
REMARK  120  A    between atoms: _305  and  _306
REMARK  121  A    between atoms: _305  and  _308
REMARK  122  A    between atoms: _308  and  _309
REMARK  123  A    between atoms: _312  and  _314
REMARK  124  A    between atoms: _314  and  _315
REMARK  125  A    between atoms: _314  and  _317
REMARK  126  A    between atoms: _320  and  _322
REMARK  127  A    between atoms: _322  and  _323
REMARK  128  A    between atoms: _322  and  _325
REMARK  129  A    between atoms: _325  and  _326
REMARK  130  A    between atoms: _326  and  _327
REMARK  131  A    between atoms: _329  and  _331
REMARK  132  A    between atoms: _331  and  _332
REMARK                            x       y       z     vdW  Elec       q    Type
REMARK                         _______ _______ _______ _____ _____    ______ ____
ROOT
ATOM      1  O   HOH     1      16.824  15.143 -14.538  0.00  0.00    +0.000 OA
ENDROOT
TORSDOF 0
REMARK  Name = ../refined-set-2016/4uyf/4uyf_pocket.pdb
REMARK  132 active torsions:
REMARK  status: ('A' for Active; 'I' for Inactive)
REMARK    1  A    between atoms: _1  and  _3
REMARK    2  A    between atoms: _3  and  _4
REMARK    3  A    between atoms: _3  and  _6
REMARK    4  A    between atoms: _6  and  _7
REMARK    5  A    between atoms: _13  and  _15
REMARK    6  A    between atoms: _15  and  _16
REMARK    7  A    between atoms: _19  and  _21
REMARK    8  A    between atoms: _21  and  _22
REMARK    9  A    between atoms: _21  and  _24
REMARK   10  A    between atoms: _24  and  _25
REMARK   11  A    between atoms: _36  and  _37
REMARK   12  A    between atoms: _42  and  _44
REMARK   13  A    between atoms: _44  and  _45
REMARK   14  A    between atoms: _44  and  _47
REMARK   15  A    between atoms: _47  and  _48
REMARK   16  A    between atoms: _54  and  _56
REMARK   17  A    between atoms: _56  and  _57
REMARK   18  A    between atoms: _56  and  _59
REMARK   19  A    between atoms: _59  and  _60
REMARK   20  A    between atoms: _60  and  _61
REMARK   21  A    between atoms: _61  and  _62
REMARK   22  A    between atoms: _71  and  _73
REMARK   23  A    between atoms: _73  and  _74
REMARK   24  A    between atoms: _73  and  _76
REMARK   25  A    between atoms: _76  and  _77
REMARK   26  A    between atoms: _77  and  _78
REMARK   27  A    between atoms: _84  and  _85
REMARK   28  A    between atoms: _90  and  _92
REMARK   29  A    between atoms: _92  and  _93
REMARK   30  A    between atoms: _92  and  _95
REMARK   31  A    between atoms: _98  and  _100
REMARK   32  A    between atoms: _100  and  _101
REMARK   33  A    between atoms: _100  and  _103
REMARK   34  A    between atoms: _103  and  _104
REMARK   35  A    between atoms: _107  and  _109
REMARK   36  A    between atoms: _109  and  _110
REMARK   37  A    between atoms: _113  and  _115
REMARK   38  A    between atoms: _115  and  _116
REMARK   39  A    between atoms: _115  and  _118
REMARK   40  A    between atoms: _118  and  _119
REMARK   41  A    between atoms: _119  and  _120
REMARK   42  A    between atoms: _120  and  _121
REMARK   43  A    between atoms: _121  and  _122
REMARK   44  A    between atoms: _126  and  _128
REMARK   45  A    between atoms: _128  and  _129
REMARK   46  A    between atoms: _128  and  _131
REMARK   47  A    between atoms: _131  and  _132
REMARK   48  A    between atoms: _135  and  _137
REMARK   49  A    between atoms: _137  and  _138
REMARK   50  A    between atoms: _137  and  _140
REMARK   51  A    between atoms: _140  and  _141
REMARK   52  A    between atoms: _144  and  _146
REMARK   53  A    between atoms: _146  and  _147
REMARK   54  A    between atoms: _146  and  _149
REMARK   55  A    between atoms: _149  and  _150
REMARK   56  A    between atoms: _155  and  _156
REMARK   57  A    between atoms: _158  and  _160
REMARK   58  A    between atoms: _160  and  _161
REMARK   59  A    between atoms: _160  and  _163
REMARK   60  A    between atoms: _163  and  _164
REMARK   61  A    between atoms: _167  and  _169
REMARK   62  A    between atoms: _169  and  _170
REMARK   63  A    between atoms: _169  and  _172
REMARK   64  A    between atoms: _172  and  _173
REMARK   65  A    between atoms: _173  and  _174
REMARK   66  A    between atoms: _176  and  _178
REMARK   67  A    between atoms: _178  and  _179
REMARK   68  A    between atoms: _178  and  _181
REMARK   69  A    between atoms: _181  and  _182
REMARK   70  A    between atoms: _185  and  _187
REMARK   71  A    between atoms: _187  and  _188
REMARK   72  A    between atoms: _187  and  _190
REMARK   73  A    between atoms: _190  and  _191
REMARK   74  A    between atoms: _191  and  _192
REMARK   75  A    between atoms: _194  and  _196
REMARK   76  A    between atoms: _196  and  _197
REMARK   77  A    between atoms: _196  and  _199
REMARK   78  A    between atoms: _199  and  _200
REMARK   79  A    between atoms: _206  and  _208
REMARK   80  A    between atoms: _208  and  _209
REMARK   81  A    between atoms: _208  and  _211
REMARK   82  A    between atoms: _211  and  _212
REMARK   83  A    between atoms: _217  and  _219
REMARK   84  A    between atoms: _219  and  _220
REMARK   85  A    between atoms: _219  and  _222
REMARK   86  A    between atoms: _224  and  _226
REMARK   87  A    between atoms: _226  and  _227
REMARK   88  A    between atoms: _226  and  _229
REMARK   89  A    between atoms: _229  and  _230
REMARK   90  A    between atoms: _235  and  _236
REMARK   91  A    between atoms: _238  and  _240
REMARK   92  A    between atoms: _240  and  _241
REMARK   93  A    between atoms: _240  and  _243
REMARK   94  A    between atoms: _243  and  _244
REMARK   95  A    between atoms: _247  and  _249
REMARK   96  A    between atoms: _249  and  _250
REMARK   97  A    between atoms: _249  and  _252
REMARK   98  A    between atoms: _252  and  _253
REMARK   99  A    between atoms: _258  and  _259
REMARK  100  A    between atoms: _261  and  _263
REMARK  101  A    between atoms: _263  and  _264
REMARK  102  A    between atoms: _263  and  _266
REMARK  103  A    between atoms: _266  and  _267
REMARK  104  A    between atoms: _272  and  _274
REMARK  105  A    between atoms: _274  and  _275
REMARK  106  A    between atoms: _274  and  _277
REMARK  107  A    between atoms: _277  and  _278
REMARK  108  A    between atoms: _278  and  _279
REMARK  109  A    between atoms: _279  and  _280
REMARK  110  A    between atoms: _280  and  _281
REMARK  111  A    between atoms: _285  and  _287
REMARK  112  A    between atoms: _287  and  _288
REMARK  113  A    between atoms: _287  and  _290
REMARK  114  A    between atoms: _290  and  _291
REMARK  115  A    between atoms: _294  and  _296
REMARK  116  A    between atoms: _296  and  _297
REMARK  117  A    between atoms: _296  and  _299
REMARK  118  A    between atoms: _299  and  _300
REMARK  119  A    between atoms: _303  and  _305
REMARK  120  A    between atoms: _305  and  _306
REMARK  121  A    between atoms: _305  and  _308
REMARK  122  A    between atoms: _308  and  _309
REMARK  123  A    between atoms: _312  and  _314
REMARK  124  A    between atoms: _314  and  _315
REMARK  125  A    between atoms: _314  and  _317
REMARK  126  A    between atoms: _320  and  _322
REMARK  127  A    between atoms: _322  and  _323
REMARK  128  A    between atoms: _322  and  _325
REMARK  129  A    between atoms: _325  and  _326
REMARK  130  A    between atoms: _326  and  _327
REMARK  131  A    between atoms: _329  and  _331
REMARK  132  A    between atoms: _331  and  _332
REMARK                            x       y       z     vdW  Elec       q    Type
REMARK                         _______ _______ _______ _____ _____    ______ ____
ROOT
ATOM      1  O   HOH     1      12.896   9.326  -7.772  0.00  0.00    +0.000 OA
ENDROOT
TORSDOF 0
REMARK  Name = ../refined-set-2016/4uyf/4uyf_pocket.pdb
REMARK  132 active torsions:
REMARK  status: ('A' for Active; 'I' for Inactive)
REMARK    1  A    between atoms: _1  and  _3
REMARK    2  A    between atoms: _3  and  _4
REMARK    3  A    between atoms: _3  and  _6
REMARK    4  A    between atoms: _6  and  _7
REMARK    5  A    between atoms: _13  and  _15
REMARK    6  A    between atoms: _15  and  _16
REMARK    7  A    between atoms: _19  and  _21
REMARK    8  A    between atoms: _21  and  _22
REMARK    9  A    between atoms: _21  and  _24
REMARK   10  A    between atoms: _24  and  _25
REMARK   11  A    between atoms: _36  and  _37
REMARK   12  A    between atoms: _42  and  _44
REMARK   13  A    between atoms: _44  and  _45
REMARK   14  A    between atoms: _44  and  _47
REMARK   15  A    between atoms: _47  and  _48
REMARK   16  A    between atoms: _54  and  _56
REMARK   17  A    between atoms: _56  and  _57
REMARK   18  A    between atoms: _56  and  _59
REMARK   19  A    between atoms: _59  and  _60
REMARK   20  A    between atoms: _60  and  _61
REMARK   21  A    between atoms: _61  and  _62
REMARK   22  A    between atoms: _71  and  _73
REMARK   23  A    between atoms: _73  and  _74
REMARK   24  A    between atoms: _73  and  _76
REMARK   25  A    between atoms: _76  and  _77
REMARK   26  A    between atoms: _77  and  _78
REMARK   27  A    between atoms: _84  and  _85
REMARK   28  A    between atoms: _90  and  _92
REMARK   29  A    between atoms: _92  and  _93
REMARK   30  A    between atoms: _92  and  _95
REMARK   31  A    between atoms: _98  and  _100
REMARK   32  A    between atoms: _100  and  _101
REMARK   33  A    between atoms: _100  and  _103
REMARK   34  A    between atoms: _103  and  _104
REMARK   35  A    between atoms: _107  and  _109
REMARK   36  A    between atoms: _109  and  _110
REMARK   37  A    between atoms: _113  and  _115
REMARK   38  A    between atoms: _115  and  _116
REMARK   39  A    between atoms: _115  and  _118
REMARK   40  A    between atoms: _118  and  _119
REMARK   41  A    between atoms: _119  and  _120
REMARK   42  A    between atoms: _120  and  _121
REMARK   43  A    between atoms: _121  and  _122
REMARK   44  A    between atoms: _126  and  _128
REMARK   45  A    between atoms: _128  and  _129
REMARK   46  A    between atoms: _128  and  _131
REMARK   47  A    between atoms: _131  and  _132
REMARK   48  A    between atoms: _135  and  _137
REMARK   49  A    between atoms: _137  and  _138
REMARK   50  A    between atoms: _137  and  _140
REMARK   51  A    between atoms: _140  and  _141
REMARK   52  A    between atoms: _144  and  _146
REMARK   53  A    between atoms: _146  and  _147
REMARK   54  A    between atoms: _146  and  _149
REMARK   55  A    between atoms: _149  and  _150
REMARK   56  A    between atoms: _155  and  _156
REMARK   57  A    between atoms: _158  and  _160
REMARK   58  A    between atoms: _160  and  _161
REMARK   59  A    between atoms: _160  and  _163
REMARK   60  A    between atoms: _163  and  _164
REMARK   61  A    between atoms: _167  and  _169
REMARK   62  A    between atoms: _169  and  _170
REMARK   63  A    between atoms: _169  and  _172
REMARK   64  A    between atoms: _172  and  _173
REMARK   65  A    between atoms: _173  and  _174
REMARK   66  A    between atoms: _176  and  _178
REMARK   67  A    between atoms: _178  and  _179
REMARK   68  A    between atoms: _178  and  _181
REMARK   69  A    between atoms: _181  and  _182
REMARK   70  A    between atoms: _185  and  _187
REMARK   71  A    between atoms: _187  and  _188
REMARK   72  A    between atoms: _187  and  _190
REMARK   73  A    between atoms: _190  and  _191
REMARK   74  A    between atoms: _191  and  _192
REMARK   75  A    between atoms: _194  and  _196
REMARK   76  A    between atoms: _196  and  _197
REMARK   77  A    between atoms: _196  and  _199
REMARK   78  A    between atoms: _199  and  _200
REMARK   79  A    between atoms: _206  and  _208
REMARK   80  A    between atoms: _208  and  _209
REMARK   81  A    between atoms: _208  and  _211
REMARK   82  A    between atoms: _211  and  _212
REMARK   83  A    between atoms: _217  and  _219
REMARK   84  A    between atoms: _219  and  _220
REMARK   85  A    between atoms: _219  and  _222
REMARK   86  A    between atoms: _224  and  _226
REMARK   87  A    between atoms: _226  and  _227
REMARK   88  A    between atoms: _226  and  _229
REMARK   89  A    between atoms: _229  and  _230
REMARK   90  A    between atoms: _235  and  _236
REMARK   91  A    between atoms: _238  and  _240
REMARK   92  A    between atoms: _240  and  _241
REMARK   93  A    between atoms: _240  and  _243
REMARK   94  A    between atoms: _243  and  _244
REMARK   95  A    between atoms: _247  and  _249
REMARK   96  A    between atoms: _249  and  _250
REMARK   97  A    between atoms: _249  and  _252
REMARK   98  A    between atoms: _252  and  _253
REMARK   99  A    between atoms: _258  and  _259
REMARK  100  A    between atoms: _261  and  _263
REMARK  101  A    between atoms: _263  and  _264
REMARK  102  A    between atoms: _263  and  _266
REMARK  103  A    between atoms: _266  and  _267
REMARK  104  A    between atoms: _272  and  _274
REMARK  105  A    between atoms: _274  and  _275
REMARK  106  A    between atoms: _274  and  _277
REMARK  107  A    between atoms: _277  and  _278
REMARK  108  A    between atoms: _278  and  _279
REMARK  109  A    between atoms: _279  and  _280
REMARK  110  A    between atoms: _280  and  _281
REMARK  111  A    between atoms: _285  and  _287
REMARK  112  A    between atoms: _287  and  _288
REMARK  113  A    between atoms: _287  and  _290
REMARK  114  A    between atoms: _290  and  _291
REMARK  115  A    between atoms: _294  and  _296
REMARK  116  A    between atoms: _296  and  _297
REMARK  117  A    between atoms: _296  and  _299
REMARK  118  A    between atoms: _299  and  _300
REMARK  119  A    between atoms: _303  and  _305
REMARK  120  A    between atoms: _305  and  _306
REMARK  121  A    between atoms: _305  and  _308
REMARK  122  A    between atoms: _308  and  _309
REMARK  123  A    between atoms: _312  and  _314
REMARK  124  A    between atoms: _314  and  _315
REMARK  125  A    between atoms: _314  and  _317
REMARK  126  A    between atoms: _320  and  _322
REMARK  127  A    between atoms: _322  and  _323
REMARK  128  A    between atoms: _322  and  _325
REMARK  129  A    between atoms: _325  and  _326
REMARK  130  A    between atoms: _326  and  _327
REMARK  131  A    between atoms: _329  and  _331
REMARK  132  A    between atoms: _331  and  _332
REMARK                            x       y       z     vdW  Elec       q    Type
REMARK                         _______ _______ _______ _____ _____    ______ ____
ROOT
ATOM      1  O   HOH     1      10.349  11.952  -7.706  0.00  0.00    +0.000 OA
ENDROOT
TORSDOF 0
REMARK  Name = ../refined-set-2016/4uyf/4uyf_pocket.pdb
REMARK  132 active torsions:
REMARK  status: ('A' for Active; 'I' for Inactive)
REMARK    1  A    between atoms: _1  and  _3
REMARK    2  A    between atoms: _3  and  _4
REMARK    3  A    between atoms: _3  and  _6
REMARK    4  A    between atoms: _6  and  _7
REMARK    5  A    between atoms: _13  and  _15
REMARK    6  A    between atoms: _15  and  _16
REMARK    7  A    between atoms: _19  and  _21
REMARK    8  A    between atoms: _21  and  _22
REMARK    9  A    between atoms: _21  and  _24
REMARK   10  A    between atoms: _24  and  _25
REMARK   11  A    between atoms: _36  and  _37
REMARK   12  A    between atoms: _42  and  _44
REMARK   13  A    between atoms: _44  and  _45
REMARK   14  A    between atoms: _44  and  _47
REMARK   15  A    between atoms: _47  and  _48
REMARK   16  A    between atoms: _54  and  _56
REMARK   17  A    between atoms: _56  and  _57
REMARK   18  A    between atoms: _56  and  _59
REMARK   19  A    between atoms: _59  and  _60
REMARK   20  A    between atoms: _60  and  _61
REMARK   21  A    between atoms: _61  and  _62
REMARK   22  A    between atoms: _71  and  _73
REMARK   23  A    between atoms: _73  and  _74
REMARK   24  A    between atoms: _73  and  _76
REMARK   25  A    between atoms: _76  and  _77
REMARK   26  A    between atoms: _77  and  _78
REMARK   27  A    between atoms: _84  and  _85
REMARK   28  A    between atoms: _90  and  _92
REMARK   29  A    between atoms: _92  and  _93
REMARK   30  A    between atoms: _92  and  _95
REMARK   31  A    between atoms: _98  and  _100
REMARK   32  A    between atoms: _100  and  _101
REMARK   33  A    between atoms: _100  and  _103
REMARK   34  A    between atoms: _103  and  _104
REMARK   35  A    between atoms: _107  and  _109
REMARK   36  A    between atoms: _109  and  _110
REMARK   37  A    between atoms: _113  and  _115
REMARK   38  A    between atoms: _115  and  _116
REMARK   39  A    between atoms: _115  and  _118
REMARK   40  A    between atoms: _118  and  _119
REMARK   41  A    between atoms: _119  and  _120
REMARK   42  A    between atoms: _120  and  _121
REMARK   43  A    between atoms: _121  and  _122
REMARK   44  A    between atoms: _126  and  _128
REMARK   45  A    between atoms: _128  and  _129
REMARK   46  A    between atoms: _128  and  _131
REMARK   47  A    between atoms: _131  and  _132
REMARK   48  A    between atoms: _135  and  _137
REMARK   49  A    between atoms: _137  and  _138
REMARK   50  A    between atoms: _137  and  _140
REMARK   51  A    between atoms: _140  and  _141
REMARK   52  A    between atoms: _144  and  _146
REMARK   53  A    between atoms: _146  and  _147
REMARK   54  A    between atoms: _146  and  _149
REMARK   55  A    between atoms: _149  and  _150
REMARK   56  A    between atoms: _155  and  _156
REMARK   57  A    between atoms: _158  and  _160
REMARK   58  A    between atoms: _160  and  _161
REMARK   59  A    between atoms: _160  and  _163
REMARK   60  A    between atoms: _163  and  _164
REMARK   61  A    between atoms: _167  and  _169
REMARK   62  A    between atoms: _169  and  _170
REMARK   63  A    between atoms: _169  and  _172
REMARK   64  A    between atoms: _172  and  _173
REMARK   65  A    between atoms: _173  and  _174
REMARK   66  A    between atoms: _176  and  _178
REMARK   67  A    between atoms: _178  and  _179
REMARK   68  A    between atoms: _178  and  _181
REMARK   69  A    between atoms: _181  and  _182
REMARK   70  A    between atoms: _185  and  _187
REMARK   71  A    between atoms: _187  and  _188
REMARK   72  A    between atoms: _187  and  _190
REMARK   73  A    between atoms: _190  and  _191
REMARK   74  A    between atoms: _191  and  _192
REMARK   75  A    between atoms: _194  and  _196
REMARK   76  A    between atoms: _196  and  _197
REMARK   77  A    between atoms: _196  and  _199
REMARK   78  A    between atoms: _199  and  _200
REMARK   79  A    between atoms: _206  and  _208
REMARK   80  A    between atoms: _208  and  _209
REMARK   81  A    between atoms: _208  and  _211
REMARK   82  A    between atoms: _211  and  _212
REMARK   83  A    between atoms: _217  and  _219
REMARK   84  A    between atoms: _219  and  _220
REMARK   85  A    between atoms: _219  and  _222
REMARK   86  A    between atoms: _224  and  _226
REMARK   87  A    between atoms: _226  and  _227
REMARK   88  A    between atoms: _226  and  _229
REMARK   89  A    between atoms: _229  and  _230
REMARK   90  A    between atoms: _235  and  _236
REMARK   91  A    between atoms: _238  and  _240
REMARK   92  A    between atoms: _240  and  _241
REMARK   93  A    between atoms: _240  and  _243
REMARK   94  A    between atoms: _243  and  _244
REMARK   95  A    between atoms: _247  and  _249
REMARK   96  A    between atoms: _249  and  _250
REMARK   97  A    between atoms: _249  and  _252
REMARK   98  A    between atoms: _252  and  _253
REMARK   99  A    between atoms: _258  and  _259
REMARK  100  A    between atoms: _261  and  _263
REMARK  101  A    between atoms: _263  and  _264
REMARK  102  A    between atoms: _263  and  _266
REMARK  103  A    between atoms: _266  and  _267
REMARK  104  A    between atoms: _272  and  _274
REMARK  105  A    between atoms: _274  and  _275
REMARK  106  A    between atoms: _274  and  _277
REMARK  107  A    between atoms: _277  and  _278
REMARK  108  A    between atoms: _278  and  _279
REMARK  109  A    between atoms: _279  and  _280
REMARK  110  A    between atoms: _280  and  _281
REMARK  111  A    between atoms: _285  and  _287
REMARK  112  A    between atoms: _287  and  _288
REMARK  113  A    between atoms: _287  and  _290
REMARK  114  A    between atoms: _290  and  _291
REMARK  115  A    between atoms: _294  and  _296
REMARK  116  A    between atoms: _296  and  _297
REMARK  117  A    between atoms: _296  and  _299
REMARK  118  A    between atoms: _299  and  _300
REMARK  119  A    between atoms: _303  and  _305
REMARK  120  A    between atoms: _305  and  _306
REMARK  121  A    between atoms: _305  and  _308
REMARK  122  A    between atoms: _308  and  _309
REMARK  123  A    between atoms: _312  and  _314
REMARK  124  A    between atoms: _314  and  _315
REMARK  125  A    between atoms: _314  and  _317
REMARK  126  A    between atoms: _320  and  _322
REMARK  127  A    between atoms: _322  and  _323
REMARK  128  A    between atoms: _322  and  _325
REMARK  129  A    between atoms: _325  and  _326
REMARK  130  A    between atoms: _326  and  _327
REMARK  131  A    between atoms: _329  and  _331
REMARK  132  A    between atoms: _331  and  _332
REMARK                            x       y       z     vdW  Elec       q    Type
REMARK                         _______ _______ _______ _____ _____    ______ ____
ROOT
ATOM      1  O   HOH     1      16.721   6.913  -6.656  0.00  0.00    +0.000 OA
ENDROOT
TORSDOF 0
REMARK  Name = ../refined-set-2016/4uyf/4uyf_pocket.pdb
REMARK  132 active torsions:
REMARK  status: ('A' for Active; 'I' for Inactive)
REMARK    1  A    between atoms: _1  and  _3
REMARK    2  A    between atoms: _3  and  _4
REMARK    3  A    between atoms: _3  and  _6
REMARK    4  A    between atoms: _6  and  _7
REMARK    5  A    between atoms: _13  and  _15
REMARK    6  A    between atoms: _15  and  _16
REMARK    7  A    between atoms: _19  and  _21
REMARK    8  A    between atoms: _21  and  _22
REMARK    9  A    between atoms: _21  and  _24
REMARK   10  A    between atoms: _24  and  _25
REMARK   11  A    between atoms: _36  and  _37
REMARK   12  A    between atoms: _42  and  _44
REMARK   13  A    between atoms: _44  and  _45
REMARK   14  A    between atoms: _44  and  _47
REMARK   15  A    between atoms: _47  and  _48
REMARK   16  A    between atoms: _54  and  _56
REMARK   17  A    between atoms: _56  and  _57
REMARK   18  A    between atoms: _56  and  _59
REMARK   19  A    between atoms: _59  and  _60
REMARK   20  A    between atoms: _60  and  _61
REMARK   21  A    between atoms: _61  and  _62
REMARK   22  A    between atoms: _71  and  _73
REMARK   23  A    between atoms: _73  and  _74
REMARK   24  A    between atoms: _73  and  _76
REMARK   25  A    between atoms: _76  and  _77
REMARK   26  A    between atoms: _77  and  _78
REMARK   27  A    between atoms: _84  and  _85
REMARK   28  A    between atoms: _90  and  _92
REMARK   29  A    between atoms: _92  and  _93
REMARK   30  A    between atoms: _92  and  _95
REMARK   31  A    between atoms: _98  and  _100
REMARK   32  A    between atoms: _100  and  _101
REMARK   33  A    between atoms: _100  and  _103
REMARK   34  A    between atoms: _103  and  _104
REMARK   35  A    between atoms: _107  and  _109
REMARK   36  A    between atoms: _109  and  _110
REMARK   37  A    between atoms: _113  and  _115
REMARK   38  A    between atoms: _115  and  _116
REMARK   39  A    between atoms: _115  and  _118
REMARK   40  A    between atoms: _118  and  _119
REMARK   41  A    between atoms: _119  and  _120
REMARK   42  A    between atoms: _120  and  _121
REMARK   43  A    between atoms: _121  and  _122
REMARK   44  A    between atoms: _126  and  _128
REMARK   45  A    between atoms: _128  and  _129
REMARK   46  A    between atoms: _128  and  _131
REMARK   47  A    between atoms: _131  and  _132
REMARK   48  A    between atoms: _135  and  _137
REMARK   49  A    between atoms: _137  and  _138
REMARK   50  A    between atoms: _137  and  _140
REMARK   51  A    between atoms: _140  and  _141
REMARK   52  A    between atoms: _144  and  _146
REMARK   53  A    between atoms: _146  and  _147
REMARK   54  A    between atoms: _146  and  _149
REMARK   55  A    between atoms: _149  and  _150
REMARK   56  A    between atoms: _155  and  _156
REMARK   57  A    between atoms: _158  and  _160
REMARK   58  A    between atoms: _160  and  _161
REMARK   59  A    between atoms: _160  and  _163
REMARK   60  A    between atoms: _163  and  _164
REMARK   61  A    between atoms: _167  and  _169
REMARK   62  A    between atoms: _169  and  _170
REMARK   63  A    between atoms: _169  and  _172
REMARK   64  A    between atoms: _172  and  _173
REMARK   65  A    between atoms: _173  and  _174
REMARK   66  A    between atoms: _176  and  _178
REMARK   67  A    between atoms: _178  and  _179
REMARK   68  A    between atoms: _178  and  _181
REMARK   69  A    between atoms: _181  and  _182
REMARK   70  A    between atoms: _185  and  _187
REMARK   71  A    between atoms: _187  and  _188
REMARK   72  A    between atoms: _187  and  _190
REMARK   73  A    between atoms: _190  and  _191
REMARK   74  A    between atoms: _191  and  _192
REMARK   75  A    between atoms: _194  and  _196
REMARK   76  A    between atoms: _196  and  _197
REMARK   77  A    between atoms: _196  and  _199
REMARK   78  A    between atoms: _199  and  _200
REMARK   79  A    between atoms: _206  and  _208
REMARK   80  A    between atoms: _208  and  _209
REMARK   81  A    between atoms: _208  and  _211
REMARK   82  A    between atoms: _211  and  _212
REMARK   83  A    between atoms: _217  and  _219
REMARK   84  A    between atoms: _219  and  _220
REMARK   85  A    between atoms: _219  and  _222
REMARK   86  A    between atoms: _224  and  _226
REMARK   87  A    between atoms: _226  and  _227
REMARK   88  A    between atoms: _226  and  _229
REMARK   89  A    between atoms: _229  and  _230
REMARK   90  A    between atoms: _235  and  _236
REMARK   91  A    between atoms: _238  and  _240
REMARK   92  A    between atoms: _240  and  _241
REMARK   93  A    between atoms: _240  and  _243
REMARK   94  A    between atoms: _243  and  _244
REMARK   95  A    between atoms: _247  and  _249
REMARK   96  A    between atoms: _249  and  _250
REMARK   97  A    between atoms: _249  and  _252
REMARK   98  A    between atoms: _252  and  _253
REMARK   99  A    between atoms: _258  and  _259
REMARK  100  A    between atoms: _261  and  _263
REMARK  101  A    between atoms: _263  and  _264
REMARK  102  A    between atoms: _263  and  _266
REMARK  103  A    between atoms: _266  and  _267
REMARK  104  A    between atoms: _272  and  _274
REMARK  105  A    between atoms: _274  and  _275
REMARK  106  A    between atoms: _274  and  _277
REMARK  107  A    between atoms: _277  and  _278
REMARK  108  A    between atoms: _278  and  _279
REMARK  109  A    between atoms: _279  and  _280
REMARK  110  A    between atoms: _280  and  _281
REMARK  111  A    between atoms: _285  and  _287
REMARK  112  A    between atoms: _287  and  _288
REMARK  113  A    between atoms: _287  and  _290
REMARK  114  A    between atoms: _290  and  _291
REMARK  115  A    between atoms: _294  and  _296
REMARK  116  A    between atoms: _296  and  _297
REMARK  117  A    between atoms: _296  and  _299
REMARK  118  A    between atoms: _299  and  _300
REMARK  119  A    between atoms: _303  and  _305
REMARK  120  A    between atoms: _305  and  _306
REMARK  121  A    between atoms: _305  and  _308
REMARK  122  A    between atoms: _308  and  _309
REMARK  123  A    between atoms: _312  and  _314
REMARK  124  A    between atoms: _314  and  _315
REMARK  125  A    between atoms: _314  and  _317
REMARK  126  A    between atoms: _320  and  _322
REMARK  127  A    between atoms: _322  and  _323
REMARK  128  A    between atoms: _322  and  _325
REMARK  129  A    between atoms: _325  and  _326
REMARK  130  A    between atoms: _326  and  _327
REMARK  131  A    between atoms: _329  and  _331
REMARK  132  A    between atoms: _331  and  _332
REMARK                            x       y       z     vdW  Elec       q    Type
REMARK                         _______ _______ _______ _____ _____    ______ ____
ROOT
ATOM      1  O   HOH     1       8.375  13.297  -6.582  0.00  0.00    +0.000 OA
ENDROOT
TORSDOF 0
REMARK  Name = ../refined-set-2016/4uyf/4uyf_pocket.pdb
REMARK  132 active torsions:
REMARK  status: ('A' for Active; 'I' for Inactive)
REMARK    1  A    between atoms: _1  and  _3
REMARK    2  A    between atoms: _3  and  _4
REMARK    3  A    between atoms: _3  and  _6
REMARK    4  A    between atoms: _6  and  _7
REMARK    5  A    between atoms: _13  and  _15
REMARK    6  A    between atoms: _15  and  _16
REMARK    7  A    between atoms: _19  and  _21
REMARK    8  A    between atoms: _21  and  _22
REMARK    9  A    between atoms: _21  and  _24
REMARK   10  A    between atoms: _24  and  _25
REMARK   11  A    between atoms: _36  and  _37
REMARK   12  A    between atoms: _42  and  _44
REMARK   13  A    between atoms: _44  and  _45
REMARK   14  A    between atoms: _44  and  _47
REMARK   15  A    between atoms: _47  and  _48
REMARK   16  A    between atoms: _54  and  _56
REMARK   17  A    between atoms: _56  and  _57
REMARK   18  A    between atoms: _56  and  _59
REMARK   19  A    between atoms: _59  and  _60
REMARK   20  A    between atoms: _60  and  _61
REMARK   21  A    between atoms: _61  and  _62
REMARK   22  A    between atoms: _71  and  _73
REMARK   23  A    between atoms: _73  and  _74
REMARK   24  A    between atoms: _73  and  _76
REMARK   25  A    between atoms: _76  and  _77
REMARK   26  A    between atoms: _77  and  _78
REMARK   27  A    between atoms: _84  and  _85
REMARK   28  A    between atoms: _90  and  _92
REMARK   29  A    between atoms: _92  and  _93
REMARK   30  A    between atoms: _92  and  _95
REMARK   31  A    between atoms: _98  and  _100
REMARK   32  A    between atoms: _100  and  _101
REMARK   33  A    between atoms: _100  and  _103
REMARK   34  A    between atoms: _103  and  _104
REMARK   35  A    between atoms: _107  and  _109
REMARK   36  A    between atoms: _109  and  _110
REMARK   37  A    between atoms: _113  and  _115
REMARK   38  A    between atoms: _115  and  _116
REMARK   39  A    between atoms: _115  and  _118
REMARK   40  A    between atoms: _118  and  _119
REMARK   41  A    between atoms: _119  and  _120
REMARK   42  A    between atoms: _120  and  _121
REMARK   43  A    between atoms: _121  and  _122
REMARK   44  A    between atoms: _126  and  _128
REMARK   45  A    between atoms: _128  and  _129
REMARK   46  A    between atoms: _128  and  _131
REMARK   47  A    between atoms: _131  and  _132
REMARK   48  A    between atoms: _135  and  _137
REMARK   49  A    between atoms: _137  and  _138
REMARK   50  A    between atoms: _137  and  _140
REMARK   51  A    between atoms: _140  and  _141
REMARK   52  A    between atoms: _144  and  _146
REMARK   53  A    between atoms: _146  and  _147
REMARK   54  A    between atoms: _146  and  _149
REMARK   55  A    between atoms: _149  and  _150
REMARK   56  A    between atoms: _155  and  _156
REMARK   57  A    between atoms: _158  and  _160
REMARK   58  A    between atoms: _160  and  _161
REMARK   59  A    between atoms: _160  and  _163
REMARK   60  A    between atoms: _163  and  _164
REMARK   61  A    between atoms: _167  and  _169
REMARK   62  A    between atoms: _169  and  _170
REMARK   63  A    between atoms: _169  and  _172
REMARK   64  A    between atoms: _172  and  _173
REMARK   65  A    between atoms: _173  and  _174
REMARK   66  A    between atoms: _176  and  _178
REMARK   67  A    between atoms: _178  and  _179
REMARK   68  A    between atoms: _178  and  _181
REMARK   69  A    between atoms: _181  and  _182
REMARK   70  A    between atoms: _185  and  _187
REMARK   71  A    between atoms: _187  and  _188
REMARK   72  A    between atoms: _187  and  _190
REMARK   73  A    between atoms: _190  and  _191
REMARK   74  A    between atoms: _191  and  _192
REMARK   75  A    between atoms: _194  and  _196
REMARK   76  A    between atoms: _196  and  _197
REMARK   77  A    between atoms: _196  and  _199
REMARK   78  A    between atoms: _199  and  _200
REMARK   79  A    between atoms: _206  and  _208
REMARK   80  A    between atoms: _208  and  _209
REMARK   81  A    between atoms: _208  and  _211
REMARK   82  A    between atoms: _211  and  _212
REMARK   83  A    between atoms: _217  and  _219
REMARK   84  A    between atoms: _219  and  _220
REMARK   85  A    between atoms: _219  and  _222
REMARK   86  A    between atoms: _224  and  _226
REMARK   87  A    between atoms: _226  and  _227
REMARK   88  A    between atoms: _226  and  _229
REMARK   89  A    between atoms: _229  and  _230
REMARK   90  A    between atoms: _235  and  _236
REMARK   91  A    between atoms: _238  and  _240
REMARK   92  A    between atoms: _240  and  _241
REMARK   93  A    between atoms: _240  and  _243
REMARK   94  A    between atoms: _243  and  _244
REMARK   95  A    between atoms: _247  and  _249
REMARK   96  A    between atoms: _249  and  _250
REMARK   97  A    between atoms: _249  and  _252
REMARK   98  A    between atoms: _252  and  _253
REMARK   99  A    between atoms: _258  and  _259
REMARK  100  A    between atoms: _261  and  _263
REMARK  101  A    between atoms: _263  and  _264
REMARK  102  A    between atoms: _263  and  _266
REMARK  103  A    between atoms: _266  and  _267
REMARK  104  A    between atoms: _272  and  _274
REMARK  105  A    between atoms: _274  and  _275
REMARK  106  A    between atoms: _274  and  _277
REMARK  107  A    between atoms: _277  and  _278
REMARK  108  A    between atoms: _278  and  _279
REMARK  109  A    between atoms: _279  and  _280
REMARK  110  A    between atoms: _280  and  _281
REMARK  111  A    between atoms: _285  and  _287
REMARK  112  A    between atoms: _287  and  _288
REMARK  113  A    between atoms: _287  and  _290
REMARK  114  A    between atoms: _290  and  _291
REMARK  115  A    between atoms: _294  and  _296
REMARK  116  A    between atoms: _296  and  _297
REMARK  117  A    between atoms: _296  and  _299
REMARK  118  A    between atoms: _299  and  _300
REMARK  119  A    between atoms: _303  and  _305
REMARK  120  A    between atoms: _305  and  _306
REMARK  121  A    between atoms: _305  and  _308
REMARK  122  A    between atoms: _308  and  _309
REMARK  123  A    between atoms: _312  and  _314
REMARK  124  A    between atoms: _314  and  _315
REMARK  125  A    between atoms: _314  and  _317
REMARK  126  A    between atoms: _320  and  _322
REMARK  127  A    between atoms: _322  and  _323
REMARK  128  A    between atoms: _322  and  _325
REMARK  129  A    between atoms: _325  and  _326
REMARK  130  A    between atoms: _326  and  _327
REMARK  131  A    between atoms: _329  and  _331
REMARK  132  A    between atoms: _331  and  _332
REMARK                            x       y       z     vdW  Elec       q    Type
REMARK                         _______ _______ _______ _____ _____    ______ ____
ROOT
ATOM      1  O   HOH     1      10.159   9.288  -7.392  0.00  0.00    +0.000 OA
ENDROOT
TORSDOF 0
REMARK  Name = ../refined-set-2016/4uyf/4uyf_pocket.pdb
REMARK  132 active torsions:
REMARK  status: ('A' for Active; 'I' for Inactive)
REMARK    1  A    between atoms: _1  and  _3
REMARK    2  A    between atoms: _3  and  _4
REMARK    3  A    between atoms: _3  and  _6
REMARK    4  A    between atoms: _6  and  _7
REMARK    5  A    between atoms: _13  and  _15
REMARK    6  A    between atoms: _15  and  _16
REMARK    7  A    between atoms: _19  and  _21
REMARK    8  A    between atoms: _21  and  _22
REMARK    9  A    between atoms: _21  and  _24
REMARK   10  A    between atoms: _24  and  _25
REMARK   11  A    between atoms: _36  and  _37
REMARK   12  A    between atoms: _42  and  _44
REMARK   13  A    between atoms: _44  and  _45
REMARK   14  A    between atoms: _44  and  _47
REMARK   15  A    between atoms: _47  and  _48
REMARK   16  A    between atoms: _54  and  _56
REMARK   17  A    between atoms: _56  and  _57
REMARK   18  A    between atoms: _56  and  _59
REMARK   19  A    between atoms: _59  and  _60
REMARK   20  A    between atoms: _60  and  _61
REMARK   21  A    between atoms: _61  and  _62
REMARK   22  A    between atoms: _71  and  _73
REMARK   23  A    between atoms: _73  and  _74
REMARK   24  A    between atoms: _73  and  _76
REMARK   25  A    between atoms: _76  and  _77
REMARK   26  A    between atoms: _77  and  _78
REMARK   27  A    between atoms: _84  and  _85
REMARK   28  A    between atoms: _90  and  _92
REMARK   29  A    between atoms: _92  and  _93
REMARK   30  A    between atoms: _92  and  _95
REMARK   31  A    between atoms: _98  and  _100
REMARK   32  A    between atoms: _100  and  _101
REMARK   33  A    between atoms: _100  and  _103
REMARK   34  A    between atoms: _103  and  _104
REMARK   35  A    between atoms: _107  and  _109
REMARK   36  A    between atoms: _109  and  _110
REMARK   37  A    between atoms: _113  and  _115
REMARK   38  A    between atoms: _115  and  _116
REMARK   39  A    between atoms: _115  and  _118
REMARK   40  A    between atoms: _118  and  _119
REMARK   41  A    between atoms: _119  and  _120
REMARK   42  A    between atoms: _120  and  _121
REMARK   43  A    between atoms: _121  and  _122
REMARK   44  A    between atoms: _126  and  _128
REMARK   45  A    between atoms: _128  and  _129
REMARK   46  A    between atoms: _128  and  _131
REMARK   47  A    between atoms: _131  and  _132
REMARK   48  A    between atoms: _135  and  _137
REMARK   49  A    between atoms: _137  and  _138
REMARK   50  A    between atoms: _137  and  _140
REMARK   51  A    between atoms: _140  and  _141
REMARK   52  A    between atoms: _144  and  _146
REMARK   53  A    between atoms: _146  and  _147
REMARK   54  A    between atoms: _146  and  _149
REMARK   55  A    between atoms: _149  and  _150
REMARK   56  A    between atoms: _155  and  _156
REMARK   57  A    between atoms: _158  and  _160
REMARK   58  A    between atoms: _160  and  _161
REMARK   59  A    between atoms: _160  and  _163
REMARK   60  A    between atoms: _163  and  _164
REMARK   61  A    between atoms: _167  and  _169
REMARK   62  A    between atoms: _169  and  _170
REMARK   63  A    between atoms: _169  and  _172
REMARK   64  A    between atoms: _172  and  _173
REMARK   65  A    between atoms: _173  and  _174
REMARK   66  A    between atoms: _176  and  _178
REMARK   67  A    between atoms: _178  and  _179
REMARK   68  A    between atoms: _178  and  _181
REMARK   69  A    between atoms: _181  and  _182
REMARK   70  A    between atoms: _185  and  _187
REMARK   71  A    between atoms: _187  and  _188
REMARK   72  A    between atoms: _187  and  _190
REMARK   73  A    between atoms: _190  and  _191
REMARK   74  A    between atoms: _191  and  _192
REMARK   75  A    between atoms: _194  and  _196
REMARK   76  A    between atoms: _196  and  _197
REMARK   77  A    between atoms: _196  and  _199
REMARK   78  A    between atoms: _199  and  _200
REMARK   79  A    between atoms: _206  and  _208
REMARK   80  A    between atoms: _208  and  _209
REMARK   81  A    between atoms: _208  and  _211
REMARK   82  A    between atoms: _211  and  _212
REMARK   83  A    between atoms: _217  and  _219
REMARK   84  A    between atoms: _219  and  _220
REMARK   85  A    between atoms: _219  and  _222
REMARK   86  A    between atoms: _224  and  _226
REMARK   87  A    between atoms: _226  and  _227
REMARK   88  A    between atoms: _226  and  _229
REMARK   89  A    between atoms: _229  and  _230
REMARK   90  A    between atoms: _235  and  _236
REMARK   91  A    between atoms: _238  and  _240
REMARK   92  A    between atoms: _240  and  _241
REMARK   93  A    between atoms: _240  and  _243
REMARK   94  A    between atoms: _243  and  _244
REMARK   95  A    between atoms: _247  and  _249
REMARK   96  A    between atoms: _249  and  _250
REMARK   97  A    between atoms: _249  and  _252
REMARK   98  A    between atoms: _252  and  _253
REMARK   99  A    between atoms: _258  and  _259
REMARK  100  A    between atoms: _261  and  _263
REMARK  101  A    between atoms: _263  and  _264
REMARK  102  A    between atoms: _263  and  _266
REMARK  103  A    between atoms: _266  and  _267
REMARK  104  A    between atoms: _272  and  _274
REMARK  105  A    between atoms: _274  and  _275
REMARK  106  A    between atoms: _274  and  _277
REMARK  107  A    between atoms: _277  and  _278
REMARK  108  A    between atoms: _278  and  _279
REMARK  109  A    between atoms: _279  and  _280
REMARK  110  A    between atoms: _280  and  _281
REMARK  111  A    between atoms: _285  and  _287
REMARK  112  A    between atoms: _287  and  _288
REMARK  113  A    between atoms: _287  and  _290
REMARK  114  A    between atoms: _290  and  _291
REMARK  115  A    between atoms: _294  and  _296
REMARK  116  A    between atoms: _296  and  _297
REMARK  117  A    between atoms: _296  and  _299
REMARK  118  A    between atoms: _299  and  _300
REMARK  119  A    between atoms: _303  and  _305
REMARK  120  A    between atoms: _305  and  _306
REMARK  121  A    between atoms: _305  and  _308
REMARK  122  A    between atoms: _308  and  _309
REMARK  123  A    between atoms: _312  and  _314
REMARK  124  A    between atoms: _314  and  _315
REMARK  125  A    between atoms: _314  and  _317
REMARK  126  A    between atoms: _320  and  _322
REMARK  127  A    between atoms: _322  and  _323
REMARK  128  A    between atoms: _322  and  _325
REMARK  129  A    between atoms: _325  and  _326
REMARK  130  A    between atoms: _326  and  _327
REMARK  131  A    between atoms: _329  and  _331
REMARK  132  A    between atoms: _331  and  _332
REMARK                            x       y       z     vdW  Elec       q    Type
REMARK                         _______ _______ _______ _____ _____    ______ ____
ROOT
ATOM      1  O   HOH     1      14.211   7.569  -9.496  0.00  0.00    +0.000 OA
ENDROOT
TORSDOF 0
REMARK  Name = ../refined-set-2016/4uyf/4uyf_pocket.pdb
REMARK  132 active torsions:
REMARK  status: ('A' for Active; 'I' for Inactive)
REMARK    1  A    between atoms: _1  and  _3
REMARK    2  A    between atoms: _3  and  _4
REMARK    3  A    between atoms: _3  and  _6
REMARK    4  A    between atoms: _6  and  _7
REMARK    5  A    between atoms: _13  and  _15
REMARK    6  A    between atoms: _15  and  _16
REMARK    7  A    between atoms: _19  and  _21
REMARK    8  A    between atoms: _21  and  _22
REMARK    9  A    between atoms: _21  and  _24
REMARK   10  A    between atoms: _24  and  _25
REMARK   11  A    between atoms: _36  and  _37
REMARK   12  A    between atoms: _42  and  _44
REMARK   13  A    between atoms: _44  and  _45
REMARK   14  A    between atoms: _44  and  _47
REMARK   15  A    between atoms: _47  and  _48
REMARK   16  A    between atoms: _54  and  _56
REMARK   17  A    between atoms: _56  and  _57
REMARK   18  A    between atoms: _56  and  _59
REMARK   19  A    between atoms: _59  and  _60
REMARK   20  A    between atoms: _60  and  _61
REMARK   21  A    between atoms: _61  and  _62
REMARK   22  A    between atoms: _71  and  _73
REMARK   23  A    between atoms: _73  and  _74
REMARK   24  A    between atoms: _73  and  _76
REMARK   25  A    between atoms: _76  and  _77
REMARK   26  A    between atoms: _77  and  _78
REMARK   27  A    between atoms: _84  and  _85
REMARK   28  A    between atoms: _90  and  _92
REMARK   29  A    between atoms: _92  and  _93
REMARK   30  A    between atoms: _92  and  _95
REMARK   31  A    between atoms: _98  and  _100
REMARK   32  A    between atoms: _100  and  _101
REMARK   33  A    between atoms: _100  and  _103
REMARK   34  A    between atoms: _103  and  _104
REMARK   35  A    between atoms: _107  and  _109
REMARK   36  A    between atoms: _109  and  _110
REMARK   37  A    between atoms: _113  and  _115
REMARK   38  A    between atoms: _115  and  _116
REMARK   39  A    between atoms: _115  and  _118
REMARK   40  A    between atoms: _118  and  _119
REMARK   41  A    between atoms: _119  and  _120
REMARK   42  A    between atoms: _120  and  _121
REMARK   43  A    between atoms: _121  and  _122
REMARK   44  A    between atoms: _126  and  _128
REMARK   45  A    between atoms: _128  and  _129
REMARK   46  A    between atoms: _128  and  _131
REMARK   47  A    between atoms: _131  and  _132
REMARK   48  A    between atoms: _135  and  _137
REMARK   49  A    between atoms: _137  and  _138
REMARK   50  A    between atoms: _137  and  _140
REMARK   51  A    between atoms: _140  and  _141
REMARK   52  A    between atoms: _144  and  _146
REMARK   53  A    between atoms: _146  and  _147
REMARK   54  A    between atoms: _146  and  _149
REMARK   55  A    between atoms: _149  and  _150
REMARK   56  A    between atoms: _155  and  _156
REMARK   57  A    between atoms: _158  and  _160
REMARK   58  A    between atoms: _160  and  _161
REMARK   59  A    between atoms: _160  and  _163
REMARK   60  A    between atoms: _163  and  _164
REMARK   61  A    between atoms: _167  and  _169
REMARK   62  A    between atoms: _169  and  _170
REMARK   63  A    between atoms: _169  and  _172
REMARK   64  A    between atoms: _172  and  _173
REMARK   65  A    between atoms: _173  and  _174
REMARK   66  A    between atoms: _176  and  _178
REMARK   67  A    between atoms: _178  and  _179
REMARK   68  A    between atoms: _178  and  _181
REMARK   69  A    between atoms: _181  and  _182
REMARK   70  A    between atoms: _185  and  _187
REMARK   71  A    between atoms: _187  and  _188
REMARK   72  A    between atoms: _187  and  _190
REMARK   73  A    between atoms: _190  and  _191
REMARK   74  A    between atoms: _191  and  _192
REMARK   75  A    between atoms: _194  and  _196
REMARK   76  A    between atoms: _196  and  _197
REMARK   77  A    between atoms: _196  and  _199
REMARK   78  A    between atoms: _199  and  _200
REMARK   79  A    between atoms: _206  and  _208
REMARK   80  A    between atoms: _208  and  _209
REMARK   81  A    between atoms: _208  and  _211
REMARK   82  A    between atoms: _211  and  _212
REMARK   83  A    between atoms: _217  and  _219
REMARK   84  A    between atoms: _219  and  _220
REMARK   85  A    between atoms: _219  and  _222
REMARK   86  A    between atoms: _224  and  _226
REMARK   87  A    between atoms: _226  and  _227
REMARK   88  A    between atoms: _226  and  _229
REMARK   89  A    between atoms: _229  and  _230
REMARK   90  A    between atoms: _235  and  _236
REMARK   91  A    between atoms: _238  and  _240
REMARK   92  A    between atoms: _240  and  _241
REMARK   93  A    between atoms: _240  and  _243
REMARK   94  A    between atoms: _243  and  _244
REMARK   95  A    between atoms: _247  and  _249
REMARK   96  A    between atoms: _249  and  _250
REMARK   97  A    between atoms: _249  and  _252
REMARK   98  A    between atoms: _252  and  _253
REMARK   99  A    between atoms: _258  and  _259
REMARK  100  A    between atoms: _261  and  _263
REMARK  101  A    between atoms: _263  and  _264
REMARK  102  A    between atoms: _263  and  _266
REMARK  103  A    between atoms: _266  and  _267
REMARK  104  A    between atoms: _272  and  _274
REMARK  105  A    between atoms: _274  and  _275
REMARK  106  A    between atoms: _274  and  _277
REMARK  107  A    between atoms: _277  and  _278
REMARK  108  A    between atoms: _278  and  _279
REMARK  109  A    between atoms: _279  and  _280
REMARK  110  A    between atoms: _280  and  _281
REMARK  111  A    between atoms: _285  and  _287
REMARK  112  A    between atoms: _287  and  _288
REMARK  113  A    between atoms: _287  and  _290
REMARK  114  A    between atoms: _290  and  _291
REMARK  115  A    between atoms: _294  and  _296
REMARK  116  A    between atoms: _296  and  _297
REMARK  117  A    between atoms: _296  and  _299
REMARK  118  A    between atoms: _299  and  _300
REMARK  119  A    between atoms: _303  and  _305
REMARK  120  A    between atoms: _305  and  _306
REMARK  121  A    between atoms: _305  and  _308
REMARK  122  A    between atoms: _308  and  _309
REMARK  123  A    between atoms: _312  and  _314
REMARK  124  A    between atoms: _314  and  _315
REMARK  125  A    between atoms: _314  and  _317
REMARK  126  A    between atoms: _320  and  _322
REMARK  127  A    between atoms: _322  and  _323
REMARK  128  A    between atoms: _322  and  _325
REMARK  129  A    between atoms: _325  and  _326
REMARK  130  A    between atoms: _326  and  _327
REMARK  131  A    between atoms: _329  and  _331
REMARK  132  A    between atoms: _331  and  _332
REMARK                            x       y       z     vdW  Elec       q    Type
REMARK                         _______ _______ _______ _____ _____    ______ ____
ROOT
ATOM      1  O   HOH     1      12.039   7.703 -11.475  0.00  0.00    +0.000 OA
ENDROOT
TORSDOF 0
REMARK  Name = ../refined-set-2016/4uyf/4uyf_pocket.pdb
REMARK  132 active torsions:
REMARK  status: ('A' for Active; 'I' for Inactive)
REMARK    1  A    between atoms: _1  and  _3
REMARK    2  A    between atoms: _3  and  _4
REMARK    3  A    between atoms: _3  and  _6
REMARK    4  A    between atoms: _6  and  _7
REMARK    5  A    between atoms: _13  and  _15
REMARK    6  A    between atoms: _15  and  _16
REMARK    7  A    between atoms: _19  and  _21
REMARK    8  A    between atoms: _21  and  _22
REMARK    9  A    between atoms: _21  and  _24
REMARK   10  A    between atoms: _24  and  _25
REMARK   11  A    between atoms: _36  and  _37
REMARK   12  A    between atoms: _42  and  _44
REMARK   13  A    between atoms: _44  and  _45
REMARK   14  A    between atoms: _44  and  _47
REMARK   15  A    between atoms: _47  and  _48
REMARK   16  A    between atoms: _54  and  _56
REMARK   17  A    between atoms: _56  and  _57
REMARK   18  A    between atoms: _56  and  _59
REMARK   19  A    between atoms: _59  and  _60
REMARK   20  A    between atoms: _60  and  _61
REMARK   21  A    between atoms: _61  and  _62
REMARK   22  A    between atoms: _71  and  _73
REMARK   23  A    between atoms: _73  and  _74
REMARK   24  A    between atoms: _73  and  _76
REMARK   25  A    between atoms: _76  and  _77
REMARK   26  A    between atoms: _77  and  _78
REMARK   27  A    between atoms: _84  and  _85
REMARK   28  A    between atoms: _90  and  _92
REMARK   29  A    between atoms: _92  and  _93
REMARK   30  A    between atoms: _92  and  _95
REMARK   31  A    between atoms: _98  and  _100
REMARK   32  A    between atoms: _100  and  _101
REMARK   33  A    between atoms: _100  and  _103
REMARK   34  A    between atoms: _103  and  _104
REMARK   35  A    between atoms: _107  and  _109
REMARK   36  A    between atoms: _109  and  _110
REMARK   37  A    between atoms: _113  and  _115
REMARK   38  A    between atoms: _115  and  _116
REMARK   39  A    between atoms: _115  and  _118
REMARK   40  A    between atoms: _118  and  _119
REMARK   41  A    between atoms: _119  and  _120
REMARK   42  A    between atoms: _120  and  _121
REMARK   43  A    between atoms: _121  and  _122
REMARK   44  A    between atoms: _126  and  _128
REMARK   45  A    between atoms: _128  and  _129
REMARK   46  A    between atoms: _128  and  _131
REMARK   47  A    between atoms: _131  and  _132
REMARK   48  A    between atoms: _135  and  _137
REMARK   49  A    between atoms: _137  and  _138
REMARK   50  A    between atoms: _137  and  _140
REMARK   51  A    between atoms: _140  and  _141
REMARK   52  A    between atoms: _144  and  _146
REMARK   53  A    between atoms: _146  and  _147
REMARK   54  A    between atoms: _146  and  _149
REMARK   55  A    between atoms: _149  and  _150
REMARK   56  A    between atoms: _155  and  _156
REMARK   57  A    between atoms: _158  and  _160
REMARK   58  A    between atoms: _160  and  _161
REMARK   59  A    between atoms: _160  and  _163
REMARK   60  A    between atoms: _163  and  _164
REMARK   61  A    between atoms: _167  and  _169
REMARK   62  A    between atoms: _169  and  _170
REMARK   63  A    between atoms: _169  and  _172
REMARK   64  A    between atoms: _172  and  _173
REMARK   65  A    between atoms: _173  and  _174
REMARK   66  A    between atoms: _176  and  _178
REMARK   67  A    between atoms: _178  and  _179
REMARK   68  A    between atoms: _178  and  _181
REMARK   69  A    between atoms: _181  and  _182
REMARK   70  A    between atoms: _185  and  _187
REMARK   71  A    between atoms: _187  and  _188
REMARK   72  A    between atoms: _187  and  _190
REMARK   73  A    between atoms: _190  and  _191
REMARK   74  A    between atoms: _191  and  _192
REMARK   75  A    between atoms: _194  and  _196
REMARK   76  A    between atoms: _196  and  _197
REMARK   77  A    between atoms: _196  and  _199
REMARK   78  A    between atoms: _199  and  _200
REMARK   79  A    between atoms: _206  and  _208
REMARK   80  A    between atoms: _208  and  _209
REMARK   81  A    between atoms: _208  and  _211
REMARK   82  A    between atoms: _211  and  _212
REMARK   83  A    between atoms: _217  and  _219
REMARK   84  A    between atoms: _219  and  _220
REMARK   85  A    between atoms: _219  and  _222
REMARK   86  A    between atoms: _224  and  _226
REMARK   87  A    between atoms: _226  and  _227
REMARK   88  A    between atoms: _226  and  _229
REMARK   89  A    between atoms: _229  and  _230
REMARK   90  A    between atoms: _235  and  _236
REMARK   91  A    between atoms: _238  and  _240
REMARK   92  A    between atoms: _240  and  _241
REMARK   93  A    between atoms: _240  and  _243
REMARK   94  A    between atoms: _243  and  _244
REMARK   95  A    between atoms: _247  and  _249
REMARK   96  A    between atoms: _249  and  _250
REMARK   97  A    between atoms: _249  and  _252
REMARK   98  A    between atoms: _252  and  _253
REMARK   99  A    between atoms: _258  and  _259
REMARK  100  A    between atoms: _261  and  _263
REMARK  101  A    between atoms: _263  and  _264
REMARK  102  A    between atoms: _263  and  _266
REMARK  103  A    between atoms: _266  and  _267
REMARK  104  A    between atoms: _272  and  _274
REMARK  105  A    between atoms: _274  and  _275
REMARK  106  A    between atoms: _274  and  _277
REMARK  107  A    between atoms: _277  and  _278
REMARK  108  A    between atoms: _278  and  _279
REMARK  109  A    between atoms: _279  and  _280
REMARK  110  A    between atoms: _280  and  _281
REMARK  111  A    between atoms: _285  and  _287
REMARK  112  A    between atoms: _287  and  _288
REMARK  113  A    between atoms: _287  and  _290
REMARK  114  A    between atoms: _290  and  _291
REMARK  115  A    between atoms: _294  and  _296
REMARK  116  A    between atoms: _296  and  _297
REMARK  117  A    between atoms: _296  and  _299
REMARK  118  A    between atoms: _299  and  _300
REMARK  119  A    between atoms: _303  and  _305
REMARK  120  A    between atoms: _305  and  _306
REMARK  121  A    between atoms: _305  and  _308
REMARK  122  A    between atoms: _308  and  _309
REMARK  123  A    between atoms: _312  and  _314
REMARK  124  A    between atoms: _314  and  _315
REMARK  125  A    between atoms: _314  and  _317
REMARK  126  A    between atoms: _320  and  _322
REMARK  127  A    between atoms: _322  and  _323
REMARK  128  A    between atoms: _322  and  _325
REMARK  129  A    between atoms: _325  and  _326
REMARK  130  A    between atoms: _326  and  _327
REMARK  131  A    between atoms: _329  and  _331
REMARK  132  A    between atoms: _331  and  _332
REMARK                            x       y       z     vdW  Elec       q    Type
REMARK                         _______ _______ _______ _____ _____    ______ ____
ROOT
ATOM      1  O   HOH     1      11.882   3.813 -10.624  0.00  0.00    +0.000 OA
ENDROOT
TORSDOF 0
REMARK  Name = ../refined-set-2016/4uyf/4uyf_pocket.pdb
REMARK  132 active torsions:
REMARK  status: ('A' for Active; 'I' for Inactive)
REMARK    1  A    between atoms: _1  and  _3
REMARK    2  A    between atoms: _3  and  _4
REMARK    3  A    between atoms: _3  and  _6
REMARK    4  A    between atoms: _6  and  _7
REMARK    5  A    between atoms: _13  and  _15
REMARK    6  A    between atoms: _15  and  _16
REMARK    7  A    between atoms: _19  and  _21
REMARK    8  A    between atoms: _21  and  _22
REMARK    9  A    between atoms: _21  and  _24
REMARK   10  A    between atoms: _24  and  _25
REMARK   11  A    between atoms: _36  and  _37
REMARK   12  A    between atoms: _42  and  _44
REMARK   13  A    between atoms: _44  and  _45
REMARK   14  A    between atoms: _44  and  _47
REMARK   15  A    between atoms: _47  and  _48
REMARK   16  A    between atoms: _54  and  _56
REMARK   17  A    between atoms: _56  and  _57
REMARK   18  A    between atoms: _56  and  _59
REMARK   19  A    between atoms: _59  and  _60
REMARK   20  A    between atoms: _60  and  _61
REMARK   21  A    between atoms: _61  and  _62
REMARK   22  A    between atoms: _71  and  _73
REMARK   23  A    between atoms: _73  and  _74
REMARK   24  A    between atoms: _73  and  _76
REMARK   25  A    between atoms: _76  and  _77
REMARK   26  A    between atoms: _77  and  _78
REMARK   27  A    between atoms: _84  and  _85
REMARK   28  A    between atoms: _90  and  _92
REMARK   29  A    between atoms: _92  and  _93
REMARK   30  A    between atoms: _92  and  _95
REMARK   31  A    between atoms: _98  and  _100
REMARK   32  A    between atoms: _100  and  _101
REMARK   33  A    between atoms: _100  and  _103
REMARK   34  A    between atoms: _103  and  _104
REMARK   35  A    between atoms: _107  and  _109
REMARK   36  A    between atoms: _109  and  _110
REMARK   37  A    between atoms: _113  and  _115
REMARK   38  A    between atoms: _115  and  _116
REMARK   39  A    between atoms: _115  and  _118
REMARK   40  A    between atoms: _118  and  _119
REMARK   41  A    between atoms: _119  and  _120
REMARK   42  A    between atoms: _120  and  _121
REMARK   43  A    between atoms: _121  and  _122
REMARK   44  A    between atoms: _126  and  _128
REMARK   45  A    between atoms: _128  and  _129
REMARK   46  A    between atoms: _128  and  _131
REMARK   47  A    between atoms: _131  and  _132
REMARK   48  A    between atoms: _135  and  _137
REMARK   49  A    between atoms: _137  and  _138
REMARK   50  A    between atoms: _137  and  _140
REMARK   51  A    between atoms: _140  and  _141
REMARK   52  A    between atoms: _144  and  _146
REMARK   53  A    between atoms: _146  and  _147
REMARK   54  A    between atoms: _146  and  _149
REMARK   55  A    between atoms: _149  and  _150
REMARK   56  A    between atoms: _155  and  _156
REMARK   57  A    between atoms: _158  and  _160
REMARK   58  A    between atoms: _160  and  _161
REMARK   59  A    between atoms: _160  and  _163
REMARK   60  A    between atoms: _163  and  _164
REMARK   61  A    between atoms: _167  and  _169
REMARK   62  A    between atoms: _169  and  _170
REMARK   63  A    between atoms: _169  and  _172
REMARK   64  A    between atoms: _172  and  _173
REMARK   65  A    between atoms: _173  and  _174
REMARK   66  A    between atoms: _176  and  _178
REMARK   67  A    between atoms: _178  and  _179
REMARK   68  A    between atoms: _178  and  _181
REMARK   69  A    between atoms: _181  and  _182
REMARK   70  A    between atoms: _185  and  _187
REMARK   71  A    between atoms: _187  and  _188
REMARK   72  A    between atoms: _187  and  _190
REMARK   73  A    between atoms: _190  and  _191
REMARK   74  A    between atoms: _191  and  _192
REMARK   75  A    between atoms: _194  and  _196
REMARK   76  A    between atoms: _196  and  _197
REMARK   77  A    between atoms: _196  and  _199
REMARK   78  A    between atoms: _199  and  _200
REMARK   79  A    between atoms: _206  and  _208
REMARK   80  A    between atoms: _208  and  _209
REMARK   81  A    between atoms: _208  and  _211
REMARK   82  A    between atoms: _211  and  _212
REMARK   83  A    between atoms: _217  and  _219
REMARK   84  A    between atoms: _219  and  _220
REMARK   85  A    between atoms: _219  and  _222
REMARK   86  A    between atoms: _224  and  _226
REMARK   87  A    between atoms: _226  and  _227
REMARK   88  A    between atoms: _226  and  _229
REMARK   89  A    between atoms: _229  and  _230
REMARK   90  A    between atoms: _235  and  _236
REMARK   91  A    between atoms: _238  and  _240
REMARK   92  A    between atoms: _240  and  _241
REMARK   93  A    between atoms: _240  and  _243
REMARK   94  A    between atoms: _243  and  _244
REMARK   95  A    between atoms: _247  and  _249
REMARK   96  A    between atoms: _249  and  _250
REMARK   97  A    between atoms: _249  and  _252
REMARK   98  A    between atoms: _252  and  _253
REMARK   99  A    between atoms: _258  and  _259
REMARK  100  A    between atoms: _261  and  _263
REMARK  101  A    between atoms: _263  and  _264
REMARK  102  A    between atoms: _263  and  _266
REMARK  103  A    between atoms: _266  and  _267
REMARK  104  A    between atoms: _272  and  _274
REMARK  105  A    between atoms: _274  and  _275
REMARK  106  A    between atoms: _274  and  _277
REMARK  107  A    between atoms: _277  and  _278
REMARK  108  A    between atoms: _278  and  _279
REMARK  109  A    between atoms: _279  and  _280
REMARK  110  A    between atoms: _280  and  _281
REMARK  111  A    between atoms: _285  and  _287
REMARK  112  A    between atoms: _287  and  _288
REMARK  113  A    between atoms: _287  and  _290
REMARK  114  A    between atoms: _290  and  _291
REMARK  115  A    between atoms: _294  and  _296
REMARK  116  A    between atoms: _296  and  _297
REMARK  117  A    between atoms: _296  and  _299
REMARK  118  A    between atoms: _299  and  _300
REMARK  119  A    between atoms: _303  and  _305
REMARK  120  A    between atoms: _305  and  _306
REMARK  121  A    between atoms: _305  and  _308
REMARK  122  A    between atoms: _308  and  _309
REMARK  123  A    between atoms: _312  and  _314
REMARK  124  A    between atoms: _314  and  _315
REMARK  125  A    between atoms: _314  and  _317
REMARK  126  A    between atoms: _320  and  _322
REMARK  127  A    between atoms: _322  and  _323
REMARK  128  A    between atoms: _322  and  _325
REMARK  129  A    between atoms: _325  and  _326
REMARK  130  A    between atoms: _326  and  _327
REMARK  131  A    between atoms: _329  and  _331
REMARK  132  A    between atoms: _331  and  _332
REMARK                            x       y       z     vdW  Elec       q    Type
REMARK                         _______ _______ _______ _____ _____    ______ ____
ROOT
ATOM      1  O   HOH     1      11.618  18.979  -8.521  0.00  0.00    +0.000 OA
ENDROOT
TORSDOF 0
REMARK  Name = ../refined-set-2016/4uyf/4uyf_pocket.pdb
REMARK  132 active torsions:
REMARK  status: ('A' for Active; 'I' for Inactive)
REMARK    1  A    between atoms: _1  and  _3
REMARK    2  A    between atoms: _3  and  _4
REMARK    3  A    between atoms: _3  and  _6
REMARK    4  A    between atoms: _6  and  _7
REMARK    5  A    between atoms: _13  and  _15
REMARK    6  A    between atoms: _15  and  _16
REMARK    7  A    between atoms: _19  and  _21
REMARK    8  A    between atoms: _21  and  _22
REMARK    9  A    between atoms: _21  and  _24
REMARK   10  A    between atoms: _24  and  _25
REMARK   11  A    between atoms: _36  and  _37
REMARK   12  A    between atoms: _42  and  _44
REMARK   13  A    between atoms: _44  and  _45
REMARK   14  A    between atoms: _44  and  _47
REMARK   15  A    between atoms: _47  and  _48
REMARK   16  A    between atoms: _54  and  _56
REMARK   17  A    between atoms: _56  and  _57
REMARK   18  A    between atoms: _56  and  _59
REMARK   19  A    between atoms: _59  and  _60
REMARK   20  A    between atoms: _60  and  _61
REMARK   21  A    between atoms: _61  and  _62
REMARK   22  A    between atoms: _71  and  _73
REMARK   23  A    between atoms: _73  and  _74
REMARK   24  A    between atoms: _73  and  _76
REMARK   25  A    between atoms: _76  and  _77
REMARK   26  A    between atoms: _77  and  _78
REMARK   27  A    between atoms: _84  and  _85
REMARK   28  A    between atoms: _90  and  _92
REMARK   29  A    between atoms: _92  and  _93
REMARK   30  A    between atoms: _92  and  _95
REMARK   31  A    between atoms: _98  and  _100
REMARK   32  A    between atoms: _100  and  _101
REMARK   33  A    between atoms: _100  and  _103
REMARK   34  A    between atoms: _103  and  _104
REMARK   35  A    between atoms: _107  and  _109
REMARK   36  A    between atoms: _109  and  _110
REMARK   37  A    between atoms: _113  and  _115
REMARK   38  A    between atoms: _115  and  _116
REMARK   39  A    between atoms: _115  and  _118
REMARK   40  A    between atoms: _118  and  _119
REMARK   41  A    between atoms: _119  and  _120
REMARK   42  A    between atoms: _120  and  _121
REMARK   43  A    between atoms: _121  and  _122
REMARK   44  A    between atoms: _126  and  _128
REMARK   45  A    between atoms: _128  and  _129
REMARK   46  A    between atoms: _128  and  _131
REMARK   47  A    between atoms: _131  and  _132
REMARK   48  A    between atoms: _135  and  _137
REMARK   49  A    between atoms: _137  and  _138
REMARK   50  A    between atoms: _137  and  _140
REMARK   51  A    between atoms: _140  and  _141
REMARK   52  A    between atoms: _144  and  _146
REMARK   53  A    between atoms: _146  and  _147
REMARK   54  A    between atoms: _146  and  _149
REMARK   55  A    between atoms: _149  and  _150
REMARK   56  A    between atoms: _155  and  _156
REMARK   57  A    between atoms: _158  and  _160
REMARK   58  A    between atoms: _160  and  _161
REMARK   59  A    between atoms: _160  and  _163
REMARK   60  A    between atoms: _163  and  _164
REMARK   61  A    between atoms: _167  and  _169
REMARK   62  A    between atoms: _169  and  _170
REMARK   63  A    between atoms: _169  and  _172
REMARK   64  A    between atoms: _172  and  _173
REMARK   65  A    between atoms: _173  and  _174
REMARK   66  A    between atoms: _176  and  _178
REMARK   67  A    between atoms: _178  and  _179
REMARK   68  A    between atoms: _178  and  _181
REMARK   69  A    between atoms: _181  and  _182
REMARK   70  A    between atoms: _185  and  _187
REMARK   71  A    between atoms: _187  and  _188
REMARK   72  A    between atoms: _187  and  _190
REMARK   73  A    between atoms: _190  and  _191
REMARK   74  A    between atoms: _191  and  _192
REMARK   75  A    between atoms: _194  and  _196
REMARK   76  A    between atoms: _196  and  _197
REMARK   77  A    between atoms: _196  and  _199
REMARK   78  A    between atoms: _199  and  _200
REMARK   79  A    between atoms: _206  and  _208
REMARK   80  A    between atoms: _208  and  _209
REMARK   81  A    between atoms: _208  and  _211
REMARK   82  A    between atoms: _211  and  _212
REMARK   83  A    between atoms: _217  and  _219
REMARK   84  A    between atoms: _219  and  _220
REMARK   85  A    between atoms: _219  and  _222
REMARK   86  A    between atoms: _224  and  _226
REMARK   87  A    between atoms: _226  and  _227
REMARK   88  A    between atoms: _226  and  _229
REMARK   89  A    between atoms: _229  and  _230
REMARK   90  A    between atoms: _235  and  _236
REMARK   91  A    between atoms: _238  and  _240
REMARK   92  A    between atoms: _240  and  _241
REMARK   93  A    between atoms: _240  and  _243
REMARK   94  A    between atoms: _243  and  _244
REMARK   95  A    between atoms: _247  and  _249
REMARK   96  A    between atoms: _249  and  _250
REMARK   97  A    between atoms: _249  and  _252
REMARK   98  A    between atoms: _252  and  _253
REMARK   99  A    between atoms: _258  and  _259
REMARK  100  A    between atoms: _261  and  _263
REMARK  101  A    between atoms: _263  and  _264
REMARK  102  A    between atoms: _263  and  _266
REMARK  103  A    between atoms: _266  and  _267
REMARK  104  A    between atoms: _272  and  _274
REMARK  105  A    between atoms: _274  and  _275
REMARK  106  A    between atoms: _274  and  _277
REMARK  107  A    between atoms: _277  and  _278
REMARK  108  A    between atoms: _278  and  _279
REMARK  109  A    between atoms: _279  and  _280
REMARK  110  A    between atoms: _280  and  _281
REMARK  111  A    between atoms: _285  and  _287
REMARK  112  A    between atoms: _287  and  _288
REMARK  113  A    between atoms: _287  and  _290
REMARK  114  A    between atoms: _290  and  _291
REMARK  115  A    between atoms: _294  and  _296
REMARK  116  A    between atoms: _296  and  _297
REMARK  117  A    between atoms: _296  and  _299
REMARK  118  A    between atoms: _299  and  _300
REMARK  119  A    between atoms: _303  and  _305
REMARK  120  A    between atoms: _305  and  _306
REMARK  121  A    between atoms: _305  and  _308
REMARK  122  A    between atoms: _308  and  _309
REMARK  123  A    between atoms: _312  and  _314
REMARK  124  A    between atoms: _314  and  _315
REMARK  125  A    between atoms: _314  and  _317
REMARK  126  A    between atoms: _320  and  _322
REMARK  127  A    between atoms: _322  and  _323
REMARK  128  A    between atoms: _322  and  _325
REMARK  129  A    between atoms: _325  and  _326
REMARK  130  A    between atoms: _326  and  _327
REMARK  131  A    between atoms: _329  and  _331
REMARK  132  A    between atoms: _331  and  _332
REMARK                            x       y       z     vdW  Elec       q    Type
REMARK                         _______ _______ _______ _____ _____    ______ ____
ROOT
ATOM      1  O   HOH     1      17.605   2.571  -6.619  0.00  0.00    +0.000 OA
ENDROOT
TORSDOF 0
REMARK  Name = ../refined-set-2016/4uyf/4uyf_pocket.pdb
REMARK  132 active torsions:
REMARK  status: ('A' for Active; 'I' for Inactive)
REMARK    1  A    between atoms: _1  and  _3
REMARK    2  A    between atoms: _3  and  _4
REMARK    3  A    between atoms: _3  and  _6
REMARK    4  A    between atoms: _6  and  _7
REMARK    5  A    between atoms: _13  and  _15
REMARK    6  A    between atoms: _15  and  _16
REMARK    7  A    between atoms: _19  and  _21
REMARK    8  A    between atoms: _21  and  _22
REMARK    9  A    between atoms: _21  and  _24
REMARK   10  A    between atoms: _24  and  _25
REMARK   11  A    between atoms: _36  and  _37
REMARK   12  A    between atoms: _42  and  _44
REMARK   13  A    between atoms: _44  and  _45
REMARK   14  A    between atoms: _44  and  _47
REMARK   15  A    between atoms: _47  and  _48
REMARK   16  A    between atoms: _54  and  _56
REMARK   17  A    between atoms: _56  and  _57
REMARK   18  A    between atoms: _56  and  _59
REMARK   19  A    between atoms: _59  and  _60
REMARK   20  A    between atoms: _60  and  _61
REMARK   21  A    between atoms: _61  and  _62
REMARK   22  A    between atoms: _71  and  _73
REMARK   23  A    between atoms: _73  and  _74
REMARK   24  A    between atoms: _73  and  _76
REMARK   25  A    between atoms: _76  and  _77
REMARK   26  A    between atoms: _77  and  _78
REMARK   27  A    between atoms: _84  and  _85
REMARK   28  A    between atoms: _90  and  _92
REMARK   29  A    between atoms: _92  and  _93
REMARK   30  A    between atoms: _92  and  _95
REMARK   31  A    between atoms: _98  and  _100
REMARK   32  A    between atoms: _100  and  _101
REMARK   33  A    between atoms: _100  and  _103
REMARK   34  A    between atoms: _103  and  _104
REMARK   35  A    between atoms: _107  and  _109
REMARK   36  A    between atoms: _109  and  _110
REMARK   37  A    between atoms: _113  and  _115
REMARK   38  A    between atoms: _115  and  _116
REMARK   39  A    between atoms: _115  and  _118
REMARK   40  A    between atoms: _118  and  _119
REMARK   41  A    between atoms: _119  and  _120
REMARK   42  A    between atoms: _120  and  _121
REMARK   43  A    between atoms: _121  and  _122
REMARK   44  A    between atoms: _126  and  _128
REMARK   45  A    between atoms: _128  and  _129
REMARK   46  A    between atoms: _128  and  _131
REMARK   47  A    between atoms: _131  and  _132
REMARK   48  A    between atoms: _135  and  _137
REMARK   49  A    between atoms: _137  and  _138
REMARK   50  A    between atoms: _137  and  _140
REMARK   51  A    between atoms: _140  and  _141
REMARK   52  A    between atoms: _144  and  _146
REMARK   53  A    between atoms: _146  and  _147
REMARK   54  A    between atoms: _146  and  _149
REMARK   55  A    between atoms: _149  and  _150
REMARK   56  A    between atoms: _155  and  _156
REMARK   57  A    between atoms: _158  and  _160
REMARK   58  A    between atoms: _160  and  _161
REMARK   59  A    between atoms: _160  and  _163
REMARK   60  A    between atoms: _163  and  _164
REMARK   61  A    between atoms: _167  and  _169
REMARK   62  A    between atoms: _169  and  _170
REMARK   63  A    between atoms: _169  and  _172
REMARK   64  A    between atoms: _172  and  _173
REMARK   65  A    between atoms: _173  and  _174
REMARK   66  A    between atoms: _176  and  _178
REMARK   67  A    between atoms: _178  and  _179
REMARK   68  A    between atoms: _178  and  _181
REMARK   69  A    between atoms: _181  and  _182
REMARK   70  A    between atoms: _185  and  _187
REMARK   71  A    between atoms: _187  and  _188
REMARK   72  A    between atoms: _187  and  _190
REMARK   73  A    between atoms: _190  and  _191
REMARK   74  A    between atoms: _191  and  _192
REMARK   75  A    between atoms: _194  and  _196
REMARK   76  A    between atoms: _196  and  _197
REMARK   77  A    between atoms: _196  and  _199
REMARK   78  A    between atoms: _199  and  _200
REMARK   79  A    between atoms: _206  and  _208
REMARK   80  A    between atoms: _208  and  _209
REMARK   81  A    between atoms: _208  and  _211
REMARK   82  A    between atoms: _211  and  _212
REMARK   83  A    between atoms: _217  and  _219
REMARK   84  A    between atoms: _219  and  _220
REMARK   85  A    between atoms: _219  and  _222
REMARK   86  A    between atoms: _224  and  _226
REMARK   87  A    between atoms: _226  and  _227
REMARK   88  A    between atoms: _226  and  _229
REMARK   89  A    between atoms: _229  and  _230
REMARK   90  A    between atoms: _235  and  _236
REMARK   91  A    between atoms: _238  and  _240
REMARK   92  A    between atoms: _240  and  _241
REMARK   93  A    between atoms: _240  and  _243
REMARK   94  A    between atoms: _243  and  _244
REMARK   95  A    between atoms: _247  and  _249
REMARK   96  A    between atoms: _249  and  _250
REMARK   97  A    between atoms: _249  and  _252
REMARK   98  A    between atoms: _252  and  _253
REMARK   99  A    between atoms: _258  and  _259
REMARK  100  A    between atoms: _261  and  _263
REMARK  101  A    between atoms: _263  and  _264
REMARK  102  A    between atoms: _263  and  _266
REMARK  103  A    between atoms: _266  and  _267
REMARK  104  A    between atoms: _272  and  _274
REMARK  105  A    between atoms: _274  and  _275
REMARK  106  A    between atoms: _274  and  _277
REMARK  107  A    between atoms: _277  and  _278
REMARK  108  A    between atoms: _278  and  _279
REMARK  109  A    between atoms: _279  and  _280
REMARK  110  A    between atoms: _280  and  _281
REMARK  111  A    between atoms: _285  and  _287
REMARK  112  A    between atoms: _287  and  _288
REMARK  113  A    between atoms: _287  and  _290
REMARK  114  A    between atoms: _290  and  _291
REMARK  115  A    between atoms: _294  and  _296
REMARK  116  A    between atoms: _296  and  _297
REMARK  117  A    between atoms: _296  and  _299
REMARK  118  A    between atoms: _299  and  _300
REMARK  119  A    between atoms: _303  and  _305
REMARK  120  A    between atoms: _305  and  _306
REMARK  121  A    between atoms: _305  and  _308
REMARK  122  A    between atoms: _308  and  _309
REMARK  123  A    between atoms: _312  and  _314
REMARK  124  A    between atoms: _314  and  _315
REMARK  125  A    between atoms: _314  and  _317
REMARK  126  A    between atoms: _320  and  _322
REMARK  127  A    between atoms: _322  and  _323
REMARK  128  A    between atoms: _322  and  _325
REMARK  129  A    between atoms: _325  and  _326
REMARK  130  A    between atoms: _326  and  _327
REMARK  131  A    between atoms: _329  and  _331
REMARK  132  A    between atoms: _331  and  _332
REMARK                            x       y       z     vdW  Elec       q    Type
REMARK                         _______ _______ _______ _____ _____    ______ ____
ROOT
ATOM      1  O   HOH     1      15.289   7.423 -12.074  0.00  0.00    +0.000 OA
ENDROOT
TORSDOF 0
REMARK  Name = ../refined-set-2016/4uyf/4uyf_pocket.pdb
REMARK  132 active torsions:
REMARK  status: ('A' for Active; 'I' for Inactive)
REMARK    1  A    between atoms: _1  and  _3
REMARK    2  A    between atoms: _3  and  _4
REMARK    3  A    between atoms: _3  and  _6
REMARK    4  A    between atoms: _6  and  _7
REMARK    5  A    between atoms: _13  and  _15
REMARK    6  A    between atoms: _15  and  _16
REMARK    7  A    between atoms: _19  and  _21
REMARK    8  A    between atoms: _21  and  _22
REMARK    9  A    between atoms: _21  and  _24
REMARK   10  A    between atoms: _24  and  _25
REMARK   11  A    between atoms: _36  and  _37
REMARK   12  A    between atoms: _42  and  _44
REMARK   13  A    between atoms: _44  and  _45
REMARK   14  A    between atoms: _44  and  _47
REMARK   15  A    between atoms: _47  and  _48
REMARK   16  A    between atoms: _54  and  _56
REMARK   17  A    between atoms: _56  and  _57
REMARK   18  A    between atoms: _56  and  _59
REMARK   19  A    between atoms: _59  and  _60
REMARK   20  A    between atoms: _60  and  _61
REMARK   21  A    between atoms: _61  and  _62
REMARK   22  A    between atoms: _71  and  _73
REMARK   23  A    between atoms: _73  and  _74
REMARK   24  A    between atoms: _73  and  _76
REMARK   25  A    between atoms: _76  and  _77
REMARK   26  A    between atoms: _77  and  _78
REMARK   27  A    between atoms: _84  and  _85
REMARK   28  A    between atoms: _90  and  _92
REMARK   29  A    between atoms: _92  and  _93
REMARK   30  A    between atoms: _92  and  _95
REMARK   31  A    between atoms: _98  and  _100
REMARK   32  A    between atoms: _100  and  _101
REMARK   33  A    between atoms: _100  and  _103
REMARK   34  A    between atoms: _103  and  _104
REMARK   35  A    between atoms: _107  and  _109
REMARK   36  A    between atoms: _109  and  _110
REMARK   37  A    between atoms: _113  and  _115
REMARK   38  A    between atoms: _115  and  _116
REMARK   39  A    between atoms: _115  and  _118
REMARK   40  A    between atoms: _118  and  _119
REMARK   41  A    between atoms: _119  and  _120
REMARK   42  A    between atoms: _120  and  _121
REMARK   43  A    between atoms: _121  and  _122
REMARK   44  A    between atoms: _126  and  _128
REMARK   45  A    between atoms: _128  and  _129
REMARK   46  A    between atoms: _128  and  _131
REMARK   47  A    between atoms: _131  and  _132
REMARK   48  A    between atoms: _135  and  _137
REMARK   49  A    between atoms: _137  and  _138
REMARK   50  A    between atoms: _137  and  _140
REMARK   51  A    between atoms: _140  and  _141
REMARK   52  A    between atoms: _144  and  _146
REMARK   53  A    between atoms: _146  and  _147
REMARK   54  A    between atoms: _146  and  _149
REMARK   55  A    between atoms: _149  and  _150
REMARK   56  A    between atoms: _155  and  _156
REMARK   57  A    between atoms: _158  and  _160
REMARK   58  A    between atoms: _160  and  _161
REMARK   59  A    between atoms: _160  and  _163
REMARK   60  A    between atoms: _163  and  _164
REMARK   61  A    between atoms: _167  and  _169
REMARK   62  A    between atoms: _169  and  _170
REMARK   63  A    between atoms: _169  and  _172
REMARK   64  A    between atoms: _172  and  _173
REMARK   65  A    between atoms: _173  and  _174
REMARK   66  A    between atoms: _176  and  _178
REMARK   67  A    between atoms: _178  and  _179
REMARK   68  A    between atoms: _178  and  _181
REMARK   69  A    between atoms: _181  and  _182
REMARK   70  A    between atoms: _185  and  _187
REMARK   71  A    between atoms: _187  and  _188
REMARK   72  A    between atoms: _187  and  _190
REMARK   73  A    between atoms: _190  and  _191
REMARK   74  A    between atoms: _191  and  _192
REMARK   75  A    between atoms: _194  and  _196
REMARK   76  A    between atoms: _196  and  _197
REMARK   77  A    between atoms: _196  and  _199
REMARK   78  A    between atoms: _199  and  _200
REMARK   79  A    between atoms: _206  and  _208
REMARK   80  A    between atoms: _208  and  _209
REMARK   81  A    between atoms: _208  and  _211
REMARK   82  A    between atoms: _211  and  _212
REMARK   83  A    between atoms: _217  and  _219
REMARK   84  A    between atoms: _219  and  _220
REMARK   85  A    between atoms: _219  and  _222
REMARK   86  A    between atoms: _224  and  _226
REMARK   87  A    between atoms: _226  and  _227
REMARK   88  A    between atoms: _226  and  _229
REMARK   89  A    between atoms: _229  and  _230
REMARK   90  A    between atoms: _235  and  _236
REMARK   91  A    between atoms: _238  and  _240
REMARK   92  A    between atoms: _240  and  _241
REMARK   93  A    between atoms: _240  and  _243
REMARK   94  A    between atoms: _243  and  _244
REMARK   95  A    between atoms: _247  and  _249
REMARK   96  A    between atoms: _249  and  _250
REMARK   97  A    between atoms: _249  and  _252
REMARK   98  A    between atoms: _252  and  _253
REMARK   99  A    between atoms: _258  and  _259
REMARK  100  A    between atoms: _261  and  _263
REMARK  101  A    between atoms: _263  and  _264
REMARK  102  A    between atoms: _263  and  _266
REMARK  103  A    between atoms: _266  and  _267
REMARK  104  A    between atoms: _272  and  _274
REMARK  105  A    between atoms: _274  and  _275
REMARK  106  A    between atoms: _274  and  _277
REMARK  107  A    between atoms: _277  and  _278
REMARK  108  A    between atoms: _278  and  _279
REMARK  109  A    between atoms: _279  and  _280
REMARK  110  A    between atoms: _280  and  _281
REMARK  111  A    between atoms: _285  and  _287
REMARK  112  A    between atoms: _287  and  _288
REMARK  113  A    between atoms: _287  and  _290
REMARK  114  A    between atoms: _290  and  _291
REMARK  115  A    between atoms: _294  and  _296
REMARK  116  A    between atoms: _296  and  _297
REMARK  117  A    between atoms: _296  and  _299
REMARK  118  A    between atoms: _299  and  _300
REMARK  119  A    between atoms: _303  and  _305
REMARK  120  A    between atoms: _305  and  _306
REMARK  121  A    between atoms: _305  and  _308
REMARK  122  A    between atoms: _308  and  _309
REMARK  123  A    between atoms: _312  and  _314
REMARK  124  A    between atoms: _314  and  _315
REMARK  125  A    between atoms: _314  and  _317
REMARK  126  A    between atoms: _320  and  _322
REMARK  127  A    between atoms: _322  and  _323
REMARK  128  A    between atoms: _322  and  _325
REMARK  129  A    between atoms: _325  and  _326
REMARK  130  A    between atoms: _326  and  _327
REMARK  131  A    between atoms: _329  and  _331
REMARK  132  A    between atoms: _331  and  _332
REMARK                            x       y       z     vdW  Elec       q    Type
REMARK                         _______ _______ _______ _____ _____    ______ ____
ROOT
ATOM      1  O   HOH     1      10.741   6.114 -13.905  0.00  0.00    +0.000 OA
ENDROOT
TORSDOF 0
REMARK  Name = ../refined-set-2016/4uyf/4uyf_pocket.pdb
REMARK  132 active torsions:
REMARK  status: ('A' for Active; 'I' for Inactive)
REMARK    1  A    between atoms: _1  and  _3
REMARK    2  A    between atoms: _3  and  _4
REMARK    3  A    between atoms: _3  and  _6
REMARK    4  A    between atoms: _6  and  _7
REMARK    5  A    between atoms: _13  and  _15
REMARK    6  A    between atoms: _15  and  _16
REMARK    7  A    between atoms: _19  and  _21
REMARK    8  A    between atoms: _21  and  _22
REMARK    9  A    between atoms: _21  and  _24
REMARK   10  A    between atoms: _24  and  _25
REMARK   11  A    between atoms: _36  and  _37
REMARK   12  A    between atoms: _42  and  _44
REMARK   13  A    between atoms: _44  and  _45
REMARK   14  A    between atoms: _44  and  _47
REMARK   15  A    between atoms: _47  and  _48
REMARK   16  A    between atoms: _54  and  _56
REMARK   17  A    between atoms: _56  and  _57
REMARK   18  A    between atoms: _56  and  _59
REMARK   19  A    between atoms: _59  and  _60
REMARK   20  A    between atoms: _60  and  _61
REMARK   21  A    between atoms: _61  and  _62
REMARK   22  A    between atoms: _71  and  _73
REMARK   23  A    between atoms: _73  and  _74
REMARK   24  A    between atoms: _73  and  _76
REMARK   25  A    between atoms: _76  and  _77
REMARK   26  A    between atoms: _77  and  _78
REMARK   27  A    between atoms: _84  and  _85
REMARK   28  A    between atoms: _90  and  _92
REMARK   29  A    between atoms: _92  and  _93
REMARK   30  A    between atoms: _92  and  _95
REMARK   31  A    between atoms: _98  and  _100
REMARK   32  A    between atoms: _100  and  _101
REMARK   33  A    between atoms: _100  and  _103
REMARK   34  A    between atoms: _103  and  _104
REMARK   35  A    between atoms: _107  and  _109
REMARK   36  A    between atoms: _109  and  _110
REMARK   37  A    between atoms: _113  and  _115
REMARK   38  A    between atoms: _115  and  _116
REMARK   39  A    between atoms: _115  and  _118
REMARK   40  A    between atoms: _118  and  _119
REMARK   41  A    between atoms: _119  and  _120
REMARK   42  A    between atoms: _120  and  _121
REMARK   43  A    between atoms: _121  and  _122
REMARK   44  A    between atoms: _126  and  _128
REMARK   45  A    between atoms: _128  and  _129
REMARK   46  A    between atoms: _128  and  _131
REMARK   47  A    between atoms: _131  and  _132
REMARK   48  A    between atoms: _135  and  _137
REMARK   49  A    between atoms: _137  and  _138
REMARK   50  A    between atoms: _137  and  _140
REMARK   51  A    between atoms: _140  and  _141
REMARK   52  A    between atoms: _144  and  _146
REMARK   53  A    between atoms: _146  and  _147
REMARK   54  A    between atoms: _146  and  _149
REMARK   55  A    between atoms: _149  and  _150
REMARK   56  A    between atoms: _155  and  _156
REMARK   57  A    between atoms: _158  and  _160
REMARK   58  A    between atoms: _160  and  _161
REMARK   59  A    between atoms: _160  and  _163
REMARK   60  A    between atoms: _163  and  _164
REMARK   61  A    between atoms: _167  and  _169
REMARK   62  A    between atoms: _169  and  _170
REMARK   63  A    between atoms: _169  and  _172
REMARK   64  A    between atoms: _172  and  _173
REMARK   65  A    between atoms: _173  and  _174
REMARK   66  A    between atoms: _176  and  _178
REMARK   67  A    between atoms: _178  and  _179
REMARK   68  A    between atoms: _178  and  _181
REMARK   69  A    between atoms: _181  and  _182
REMARK   70  A    between atoms: _185  and  _187
REMARK   71  A    between atoms: _187  and  _188
REMARK   72  A    between atoms: _187  and  _190
REMARK   73  A    between atoms: _190  and  _191
REMARK   74  A    between atoms: _191  and  _192
REMARK   75  A    between atoms: _194  and  _196
REMARK   76  A    between atoms: _196  and  _197
REMARK   77  A    between atoms: _196  and  _199
REMARK   78  A    between atoms: _199  and  _200
REMARK   79  A    between atoms: _206  and  _208
REMARK   80  A    between atoms: _208  and  _209
REMARK   81  A    between atoms: _208  and  _211
REMARK   82  A    between atoms: _211  and  _212
REMARK   83  A    between atoms: _217  and  _219
REMARK   84  A    between atoms: _219  and  _220
REMARK   85  A    between atoms: _219  and  _222
REMARK   86  A    between atoms: _224  and  _226
REMARK   87  A    between atoms: _226  and  _227
REMARK   88  A    between atoms: _226  and  _229
REMARK   89  A    between atoms: _229  and  _230
REMARK   90  A    between atoms: _235  and  _236
REMARK   91  A    between atoms: _238  and  _240
REMARK   92  A    between atoms: _240  and  _241
REMARK   93  A    between atoms: _240  and  _243
REMARK   94  A    between atoms: _243  and  _244
REMARK   95  A    between atoms: _247  and  _249
REMARK   96  A    between atoms: _249  and  _250
REMARK   97  A    between atoms: _249  and  _252
REMARK   98  A    between atoms: _252  and  _253
REMARK   99  A    between atoms: _258  and  _259
REMARK  100  A    between atoms: _261  and  _263
REMARK  101  A    between atoms: _263  and  _264
REMARK  102  A    between atoms: _263  and  _266
REMARK  103  A    between atoms: _266  and  _267
REMARK  104  A    between atoms: _272  and  _274
REMARK  105  A    between atoms: _274  and  _275
REMARK  106  A    between atoms: _274  and  _277
REMARK  107  A    between atoms: _277  and  _278
REMARK  108  A    between atoms: _278  and  _279
REMARK  109  A    between atoms: _279  and  _280
REMARK  110  A    between atoms: _280  and  _281
REMARK  111  A    between atoms: _285  and  _287
REMARK  112  A    between atoms: _287  and  _288
REMARK  113  A    between atoms: _287  and  _290
REMARK  114  A    between atoms: _290  and  _291
REMARK  115  A    between atoms: _294  and  _296
REMARK  116  A    between atoms: _296  and  _297
REMARK  117  A    between atoms: _296  and  _299
REMARK  118  A    between atoms: _299  and  _300
REMARK  119  A    between atoms: _303  and  _305
REMARK  120  A    between atoms: _305  and  _306
REMARK  121  A    between atoms: _305  and  _308
REMARK  122  A    between atoms: _308  and  _309
REMARK  123  A    between atoms: _312  and  _314
REMARK  124  A    between atoms: _314  and  _315
REMARK  125  A    between atoms: _314  and  _317
REMARK  126  A    between atoms: _320  and  _322
REMARK  127  A    between atoms: _322  and  _323
REMARK  128  A    between atoms: _322  and  _325
REMARK  129  A    between atoms: _325  and  _326
REMARK  130  A    between atoms: _326  and  _327
REMARK  131  A    between atoms: _329  and  _331
REMARK  132  A    between atoms: _331  and  _332
REMARK                            x       y       z     vdW  Elec       q    Type
REMARK                         _______ _______ _______ _____ _____    ______ ____
ROOT
ATOM      1  O   HOH     1      14.648  10.288 -20.363  0.00  0.00    +0.000 OA
ENDROOT
TORSDOF 0
REMARK  Name = ../refined-set-2016/4uyf/4uyf_pocket.pdb
REMARK  132 active torsions:
REMARK  status: ('A' for Active; 'I' for Inactive)
REMARK    1  A    between atoms: _1  and  _3
REMARK    2  A    between atoms: _3  and  _4
REMARK    3  A    between atoms: _3  and  _6
REMARK    4  A    between atoms: _6  and  _7
REMARK    5  A    between atoms: _13  and  _15
REMARK    6  A    between atoms: _15  and  _16
REMARK    7  A    between atoms: _19  and  _21
REMARK    8  A    between atoms: _21  and  _22
REMARK    9  A    between atoms: _21  and  _24
REMARK   10  A    between atoms: _24  and  _25
REMARK   11  A    between atoms: _36  and  _37
REMARK   12  A    between atoms: _42  and  _44
REMARK   13  A    between atoms: _44  and  _45
REMARK   14  A    between atoms: _44  and  _47
REMARK   15  A    between atoms: _47  and  _48
REMARK   16  A    between atoms: _54  and  _56
REMARK   17  A    between atoms: _56  and  _57
REMARK   18  A    between atoms: _56  and  _59
REMARK   19  A    between atoms: _59  and  _60
REMARK   20  A    between atoms: _60  and  _61
REMARK   21  A    between atoms: _61  and  _62
REMARK   22  A    between atoms: _71  and  _73
REMARK   23  A    between atoms: _73  and  _74
REMARK   24  A    between atoms: _73  and  _76
REMARK   25  A    between atoms: _76  and  _77
REMARK   26  A    between atoms: _77  and  _78
REMARK   27  A    between atoms: _84  and  _85
REMARK   28  A    between atoms: _90  and  _92
REMARK   29  A    between atoms: _92  and  _93
REMARK   30  A    between atoms: _92  and  _95
REMARK   31  A    between atoms: _98  and  _100
REMARK   32  A    between atoms: _100  and  _101
REMARK   33  A    between atoms: _100  and  _103
REMARK   34  A    between atoms: _103  and  _104
REMARK   35  A    between atoms: _107  and  _109
REMARK   36  A    between atoms: _109  and  _110
REMARK   37  A    between atoms: _113  and  _115
REMARK   38  A    between atoms: _115  and  _116
REMARK   39  A    between atoms: _115  and  _118
REMARK   40  A    between atoms: _118  and  _119
REMARK   41  A    between atoms: _119  and  _120
REMARK   42  A    between atoms: _120  and  _121
REMARK   43  A    between atoms: _121  and  _122
REMARK   44  A    between atoms: _126  and  _128
REMARK   45  A    between atoms: _128  and  _129
REMARK   46  A    between atoms: _128  and  _131
REMARK   47  A    between atoms: _131  and  _132
REMARK   48  A    between atoms: _135  and  _137
REMARK   49  A    between atoms: _137  and  _138
REMARK   50  A    between atoms: _137  and  _140
REMARK   51  A    between atoms: _140  and  _141
REMARK   52  A    between atoms: _144  and  _146
REMARK   53  A    between atoms: _146  and  _147
REMARK   54  A    between atoms: _146  and  _149
REMARK   55  A    between atoms: _149  and  _150
REMARK   56  A    between atoms: _155  and  _156
REMARK   57  A    between atoms: _158  and  _160
REMARK   58  A    between atoms: _160  and  _161
REMARK   59  A    between atoms: _160  and  _163
REMARK   60  A    between atoms: _163  and  _164
REMARK   61  A    between atoms: _167  and  _169
REMARK   62  A    between atoms: _169  and  _170
REMARK   63  A    between atoms: _169  and  _172
REMARK   64  A    between atoms: _172  and  _173
REMARK   65  A    between atoms: _173  and  _174
REMARK   66  A    between atoms: _176  and  _178
REMARK   67  A    between atoms: _178  and  _179
REMARK   68  A    between atoms: _178  and  _181
REMARK   69  A    between atoms: _181  and  _182
REMARK   70  A    between atoms: _185  and  _187
REMARK   71  A    between atoms: _187  and  _188
REMARK   72  A    between atoms: _187  and  _190
REMARK   73  A    between atoms: _190  and  _191
REMARK   74  A    between atoms: _191  and  _192
REMARK   75  A    between atoms: _194  and  _196
REMARK   76  A    between atoms: _196  and  _197
REMARK   77  A    between atoms: _196  and  _199
REMARK   78  A    between atoms: _199  and  _200
REMARK   79  A    between atoms: _206  and  _208
REMARK   80  A    between atoms: _208  and  _209
REMARK   81  A    between atoms: _208  and  _211
REMARK   82  A    between atoms: _211  and  _212
REMARK   83  A    between atoms: _217  and  _219
REMARK   84  A    between atoms: _219  and  _220
REMARK   85  A    between atoms: _219  and  _222
REMARK   86  A    between atoms: _224  and  _226
REMARK   87  A    between atoms: _226  and  _227
REMARK   88  A    between atoms: _226  and  _229
REMARK   89  A    between atoms: _229  and  _230
REMARK   90  A    between atoms: _235  and  _236
REMARK   91  A    between atoms: _238  and  _240
REMARK   92  A    between atoms: _240  and  _241
REMARK   93  A    between atoms: _240  and  _243
REMARK   94  A    between atoms: _243  and  _244
REMARK   95  A    between atoms: _247  and  _249
REMARK   96  A    between atoms: _249  and  _250
REMARK   97  A    between atoms: _249  and  _252
REMARK   98  A    between atoms: _252  and  _253
REMARK   99  A    between atoms: _258  and  _259
REMARK  100  A    between atoms: _261  and  _263
REMARK  101  A    between atoms: _263  and  _264
REMARK  102  A    between atoms: _263  and  _266
REMARK  103  A    between atoms: _266  and  _267
REMARK  104  A    between atoms: _272  and  _274
REMARK  105  A    between atoms: _274  and  _275
REMARK  106  A    between atoms: _274  and  _277
REMARK  107  A    between atoms: _277  and  _278
REMARK  108  A    between atoms: _278  and  _279
REMARK  109  A    between atoms: _279  and  _280
REMARK  110  A    between atoms: _280  and  _281
REMARK  111  A    between atoms: _285  and  _287
REMARK  112  A    between atoms: _287  and  _288
REMARK  113  A    between atoms: _287  and  _290
REMARK  114  A    between atoms: _290  and  _291
REMARK  115  A    between atoms: _294  and  _296
REMARK  116  A    between atoms: _296  and  _297
REMARK  117  A    between atoms: _296  and  _299
REMARK  118  A    between atoms: _299  and  _300
REMARK  119  A    between atoms: _303  and  _305
REMARK  120  A    between atoms: _305  and  _306
REMARK  121  A    between atoms: _305  and  _308
REMARK  122  A    between atoms: _308  and  _309
REMARK  123  A    between atoms: _312  and  _314
REMARK  124  A    between atoms: _314  and  _315
REMARK  125  A    between atoms: _314  and  _317
REMARK  126  A    between atoms: _320  and  _322
REMARK  127  A    between atoms: _322  and  _323
REMARK  128  A    between atoms: _322  and  _325
REMARK  129  A    between atoms: _325  and  _326
REMARK  130  A    between atoms: _326  and  _327
REMARK  131  A    between atoms: _329  and  _331
REMARK  132  A    between atoms: _331  and  _332
REMARK                            x       y       z     vdW  Elec       q    Type
REMARK                         _______ _______ _______ _____ _____    ______ ____
ROOT
ATOM      1  O   HOH     1       8.864   9.520 -14.623  0.00  0.00    +0.000 OA
ENDROOT
TORSDOF 0
REMARK  Name = ../refined-set-2016/4uyf/4uyf_pocket.pdb
REMARK  132 active torsions:
REMARK  status: ('A' for Active; 'I' for Inactive)
REMARK    1  A    between atoms: _1  and  _3
REMARK    2  A    between atoms: _3  and  _4
REMARK    3  A    between atoms: _3  and  _6
REMARK    4  A    between atoms: _6  and  _7
REMARK    5  A    between atoms: _13  and  _15
REMARK    6  A    between atoms: _15  and  _16
REMARK    7  A    between atoms: _19  and  _21
REMARK    8  A    between atoms: _21  and  _22
REMARK    9  A    between atoms: _21  and  _24
REMARK   10  A    between atoms: _24  and  _25
REMARK   11  A    between atoms: _36  and  _37
REMARK   12  A    between atoms: _42  and  _44
REMARK   13  A    between atoms: _44  and  _45
REMARK   14  A    between atoms: _44  and  _47
REMARK   15  A    between atoms: _47  and  _48
REMARK   16  A    between atoms: _54  and  _56
REMARK   17  A    between atoms: _56  and  _57
REMARK   18  A    between atoms: _56  and  _59
REMARK   19  A    between atoms: _59  and  _60
REMARK   20  A    between atoms: _60  and  _61
REMARK   21  A    between atoms: _61  and  _62
REMARK   22  A    between atoms: _71  and  _73
REMARK   23  A    between atoms: _73  and  _74
REMARK   24  A    between atoms: _73  and  _76
REMARK   25  A    between atoms: _76  and  _77
REMARK   26  A    between atoms: _77  and  _78
REMARK   27  A    between atoms: _84  and  _85
REMARK   28  A    between atoms: _90  and  _92
REMARK   29  A    between atoms: _92  and  _93
REMARK   30  A    between atoms: _92  and  _95
REMARK   31  A    between atoms: _98  and  _100
REMARK   32  A    between atoms: _100  and  _101
REMARK   33  A    between atoms: _100  and  _103
REMARK   34  A    between atoms: _103  and  _104
REMARK   35  A    between atoms: _107  and  _109
REMARK   36  A    between atoms: _109  and  _110
REMARK   37  A    between atoms: _113  and  _115
REMARK   38  A    between atoms: _115  and  _116
REMARK   39  A    between atoms: _115  and  _118
REMARK   40  A    between atoms: _118  and  _119
REMARK   41  A    between atoms: _119  and  _120
REMARK   42  A    between atoms: _120  and  _121
REMARK   43  A    between atoms: _121  and  _122
REMARK   44  A    between atoms: _126  and  _128
REMARK   45  A    between atoms: _128  and  _129
REMARK   46  A    between atoms: _128  and  _131
REMARK   47  A    between atoms: _131  and  _132
REMARK   48  A    between atoms: _135  and  _137
REMARK   49  A    between atoms: _137  and  _138
REMARK   50  A    between atoms: _137  and  _140
REMARK   51  A    between atoms: _140  and  _141
REMARK   52  A    between atoms: _144  and  _146
REMARK   53  A    between atoms: _146  and  _147
REMARK   54  A    between atoms: _146  and  _149
REMARK   55  A    between atoms: _149  and  _150
REMARK   56  A    between atoms: _155  and  _156
REMARK   57  A    between atoms: _158  and  _160
REMARK   58  A    between atoms: _160  and  _161
REMARK   59  A    between atoms: _160  and  _163
REMARK   60  A    between atoms: _163  and  _164
REMARK   61  A    between atoms: _167  and  _169
REMARK   62  A    between atoms: _169  and  _170
REMARK   63  A    between atoms: _169  and  _172
REMARK   64  A    between atoms: _172  and  _173
REMARK   65  A    between atoms: _173  and  _174
REMARK   66  A    between atoms: _176  and  _178
REMARK   67  A    between atoms: _178  and  _179
REMARK   68  A    between atoms: _178  and  _181
REMARK   69  A    between atoms: _181  and  _182
REMARK   70  A    between atoms: _185  and  _187
REMARK   71  A    between atoms: _187  and  _188
REMARK   72  A    between atoms: _187  and  _190
REMARK   73  A    between atoms: _190  and  _191
REMARK   74  A    between atoms: _191  and  _192
REMARK   75  A    between atoms: _194  and  _196
REMARK   76  A    between atoms: _196  and  _197
REMARK   77  A    between atoms: _196  and  _199
REMARK   78  A    between atoms: _199  and  _200
REMARK   79  A    between atoms: _206  and  _208
REMARK   80  A    between atoms: _208  and  _209
REMARK   81  A    between atoms: _208  and  _211
REMARK   82  A    between atoms: _211  and  _212
REMARK   83  A    between atoms: _217  and  _219
REMARK   84  A    between atoms: _219  and  _220
REMARK   85  A    between atoms: _219  and  _222
REMARK   86  A    between atoms: _224  and  _226
REMARK   87  A    between atoms: _226  and  _227
REMARK   88  A    between atoms: _226  and  _229
REMARK   89  A    between atoms: _229  and  _230
REMARK   90  A    between atoms: _235  and  _236
REMARK   91  A    between atoms: _238  and  _240
REMARK   92  A    between atoms: _240  and  _241
REMARK   93  A    between atoms: _240  and  _243
REMARK   94  A    between atoms: _243  and  _244
REMARK   95  A    between atoms: _247  and  _249
REMARK   96  A    between atoms: _249  and  _250
REMARK   97  A    between atoms: _249  and  _252
REMARK   98  A    between atoms: _252  and  _253
REMARK   99  A    between atoms: _258  and  _259
REMARK  100  A    between atoms: _261  and  _263
REMARK  101  A    between atoms: _263  and  _264
REMARK  102  A    between atoms: _263  and  _266
REMARK  103  A    between atoms: _266  and  _267
REMARK  104  A    between atoms: _272  and  _274
REMARK  105  A    between atoms: _274  and  _275
REMARK  106  A    between atoms: _274  and  _277
REMARK  107  A    between atoms: _277  and  _278
REMARK  108  A    between atoms: _278  and  _279
REMARK  109  A    between atoms: _279  and  _280
REMARK  110  A    between atoms: _280  and  _281
REMARK  111  A    between atoms: _285  and  _287
REMARK  112  A    between atoms: _287  and  _288
REMARK  113  A    between atoms: _287  and  _290
REMARK  114  A    between atoms: _290  and  _291
REMARK  115  A    between atoms: _294  and  _296
REMARK  116  A    between atoms: _296  and  _297
REMARK  117  A    between atoms: _296  and  _299
REMARK  118  A    between atoms: _299  and  _300
REMARK  119  A    between atoms: _303  and  _305
REMARK  120  A    between atoms: _305  and  _306
REMARK  121  A    between atoms: _305  and  _308
REMARK  122  A    between atoms: _308  and  _309
REMARK  123  A    between atoms: _312  and  _314
REMARK  124  A    between atoms: _314  and  _315
REMARK  125  A    between atoms: _314  and  _317
REMARK  126  A    between atoms: _320  and  _322
REMARK  127  A    between atoms: _322  and  _323
REMARK  128  A    between atoms: _322  and  _325
REMARK  129  A    between atoms: _325  and  _326
REMARK  130  A    between atoms: _326  and  _327
REMARK  131  A    between atoms: _329  and  _331
REMARK  132  A    between atoms: _331  and  _332
REMARK                            x       y       z     vdW  Elec       q    Type
REMARK                         _______ _______ _______ _____ _____    ______ ____
ROOT
ATOM      1  O   HOH     1      13.674  12.191 -18.211  0.00  0.00    +0.000 OA
ENDROOT
TORSDOF 0
REMARK  Name = ../refined-set-2016/4uyf/4uyf_pocket.pdb
REMARK  132 active torsions:
REMARK  status: ('A' for Active; 'I' for Inactive)
REMARK    1  A    between atoms: _1  and  _3
REMARK    2  A    between atoms: _3  and  _4
REMARK    3  A    between atoms: _3  and  _6
REMARK    4  A    between atoms: _6  and  _7
REMARK    5  A    between atoms: _13  and  _15
REMARK    6  A    between atoms: _15  and  _16
REMARK    7  A    between atoms: _19  and  _21
REMARK    8  A    between atoms: _21  and  _22
REMARK    9  A    between atoms: _21  and  _24
REMARK   10  A    between atoms: _24  and  _25
REMARK   11  A    between atoms: _36  and  _37
REMARK   12  A    between atoms: _42  and  _44
REMARK   13  A    between atoms: _44  and  _45
REMARK   14  A    between atoms: _44  and  _47
REMARK   15  A    between atoms: _47  and  _48
REMARK   16  A    between atoms: _54  and  _56
REMARK   17  A    between atoms: _56  and  _57
REMARK   18  A    between atoms: _56  and  _59
REMARK   19  A    between atoms: _59  and  _60
REMARK   20  A    between atoms: _60  and  _61
REMARK   21  A    between atoms: _61  and  _62
REMARK   22  A    between atoms: _71  and  _73
REMARK   23  A    between atoms: _73  and  _74
REMARK   24  A    between atoms: _73  and  _76
REMARK   25  A    between atoms: _76  and  _77
REMARK   26  A    between atoms: _77  and  _78
REMARK   27  A    between atoms: _84  and  _85
REMARK   28  A    between atoms: _90  and  _92
REMARK   29  A    between atoms: _92  and  _93
REMARK   30  A    between atoms: _92  and  _95
REMARK   31  A    between atoms: _98  and  _100
REMARK   32  A    between atoms: _100  and  _101
REMARK   33  A    between atoms: _100  and  _103
REMARK   34  A    between atoms: _103  and  _104
REMARK   35  A    between atoms: _107  and  _109
REMARK   36  A    between atoms: _109  and  _110
REMARK   37  A    between atoms: _113  and  _115
REMARK   38  A    between atoms: _115  and  _116
REMARK   39  A    between atoms: _115  and  _118
REMARK   40  A    between atoms: _118  and  _119
REMARK   41  A    between atoms: _119  and  _120
REMARK   42  A    between atoms: _120  and  _121
REMARK   43  A    between atoms: _121  and  _122
REMARK   44  A    between atoms: _126  and  _128
REMARK   45  A    between atoms: _128  and  _129
REMARK   46  A    between atoms: _128  and  _131
REMARK   47  A    between atoms: _131  and  _132
REMARK   48  A    between atoms: _135  and  _137
REMARK   49  A    between atoms: _137  and  _138
REMARK   50  A    between atoms: _137  and  _140
REMARK   51  A    between atoms: _140  and  _141
REMARK   52  A    between atoms: _144  and  _146
REMARK   53  A    between atoms: _146  and  _147
REMARK   54  A    between atoms: _146  and  _149
REMARK   55  A    between atoms: _149  and  _150
REMARK   56  A    between atoms: _155  and  _156
REMARK   57  A    between atoms: _158  and  _160
REMARK   58  A    between atoms: _160  and  _161
REMARK   59  A    between atoms: _160  and  _163
REMARK   60  A    between atoms: _163  and  _164
REMARK   61  A    between atoms: _167  and  _169
REMARK   62  A    between atoms: _169  and  _170
REMARK   63  A    between atoms: _169  and  _172
REMARK   64  A    between atoms: _172  and  _173
REMARK   65  A    between atoms: _173  and  _174
REMARK   66  A    between atoms: _176  and  _178
REMARK   67  A    between atoms: _178  and  _179
REMARK   68  A    between atoms: _178  and  _181
REMARK   69  A    between atoms: _181  and  _182
REMARK   70  A    between atoms: _185  and  _187
REMARK   71  A    between atoms: _187  and  _188
REMARK   72  A    between atoms: _187  and  _190
REMARK   73  A    between atoms: _190  and  _191
REMARK   74  A    between atoms: _191  and  _192
REMARK   75  A    between atoms: _194  and  _196
REMARK   76  A    between atoms: _196  and  _197
REMARK   77  A    between atoms: _196  and  _199
REMARK   78  A    between atoms: _199  and  _200
REMARK   79  A    between atoms: _206  and  _208
REMARK   80  A    between atoms: _208  and  _209
REMARK   81  A    between atoms: _208  and  _211
REMARK   82  A    between atoms: _211  and  _212
REMARK   83  A    between atoms: _217  and  _219
REMARK   84  A    between atoms: _219  and  _220
REMARK   85  A    between atoms: _219  and  _222
REMARK   86  A    between atoms: _224  and  _226
REMARK   87  A    between atoms: _226  and  _227
REMARK   88  A    between atoms: _226  and  _229
REMARK   89  A    between atoms: _229  and  _230
REMARK   90  A    between atoms: _235  and  _236
REMARK   91  A    between atoms: _238  and  _240
REMARK   92  A    between atoms: _240  and  _241
REMARK   93  A    between atoms: _240  and  _243
REMARK   94  A    between atoms: _243  and  _244
REMARK   95  A    between atoms: _247  and  _249
REMARK   96  A    between atoms: _249  and  _250
REMARK   97  A    between atoms: _249  and  _252
REMARK   98  A    between atoms: _252  and  _253
REMARK   99  A    between atoms: _258  and  _259
REMARK  100  A    between atoms: _261  and  _263
REMARK  101  A    between atoms: _263  and  _264
REMARK  102  A    between atoms: _263  and  _266
REMARK  103  A    between atoms: _266  and  _267
REMARK  104  A    between atoms: _272  and  _274
REMARK  105  A    between atoms: _274  and  _275
REMARK  106  A    between atoms: _274  and  _277
REMARK  107  A    between atoms: _277  and  _278
REMARK  108  A    between atoms: _278  and  _279
REMARK  109  A    between atoms: _279  and  _280
REMARK  110  A    between atoms: _280  and  _281
REMARK  111  A    between atoms: _285  and  _287
REMARK  112  A    between atoms: _287  and  _288
REMARK  113  A    between atoms: _287  and  _290
REMARK  114  A    between atoms: _290  and  _291
REMARK  115  A    between atoms: _294  and  _296
REMARK  116  A    between atoms: _296  and  _297
REMARK  117  A    between atoms: _296  and  _299
REMARK  118  A    between atoms: _299  and  _300
REMARK  119  A    between atoms: _303  and  _305
REMARK  120  A    between atoms: _305  and  _306
REMARK  121  A    between atoms: _305  and  _308
REMARK  122  A    between atoms: _308  and  _309
REMARK  123  A    between atoms: _312  and  _314
REMARK  124  A    between atoms: _314  and  _315
REMARK  125  A    between atoms: _314  and  _317
REMARK  126  A    between atoms: _320  and  _322
REMARK  127  A    between atoms: _322  and  _323
REMARK  128  A    between atoms: _322  and  _325
REMARK  129  A    between atoms: _325  and  _326
REMARK  130  A    between atoms: _326  and  _327
REMARK  131  A    between atoms: _329  and  _331
REMARK  132  A    between atoms: _331  and  _332
REMARK                            x       y       z     vdW  Elec       q    Type
REMARK                         _______ _______ _______ _____ _____    ______ ____
ROOT
ATOM      1  O   HOH     1       9.845  11.332 -16.691  0.00  0.00    +0.000 OA
ENDROOT
TORSDOF 0
REMARK  Name = ../refined-set-2016/4uyf/4uyf_pocket.pdb
REMARK  132 active torsions:
REMARK  status: ('A' for Active; 'I' for Inactive)
REMARK    1  A    between atoms: _1  and  _3
REMARK    2  A    between atoms: _3  and  _4
REMARK    3  A    between atoms: _3  and  _6
REMARK    4  A    between atoms: _6  and  _7
REMARK    5  A    between atoms: _13  and  _15
REMARK    6  A    between atoms: _15  and  _16
REMARK    7  A    between atoms: _19  and  _21
REMARK    8  A    between atoms: _21  and  _22
REMARK    9  A    between atoms: _21  and  _24
REMARK   10  A    between atoms: _24  and  _25
REMARK   11  A    between atoms: _36  and  _37
REMARK   12  A    between atoms: _42  and  _44
REMARK   13  A    between atoms: _44  and  _45
REMARK   14  A    between atoms: _44  and  _47
REMARK   15  A    between atoms: _47  and  _48
REMARK   16  A    between atoms: _54  and  _56
REMARK   17  A    between atoms: _56  and  _57
REMARK   18  A    between atoms: _56  and  _59
REMARK   19  A    between atoms: _59  and  _60
REMARK   20  A    between atoms: _60  and  _61
REMARK   21  A    between atoms: _61  and  _62
REMARK   22  A    between atoms: _71  and  _73
REMARK   23  A    between atoms: _73  and  _74
REMARK   24  A    between atoms: _73  and  _76
REMARK   25  A    between atoms: _76  and  _77
REMARK   26  A    between atoms: _77  and  _78
REMARK   27  A    between atoms: _84  and  _85
REMARK   28  A    between atoms: _90  and  _92
REMARK   29  A    between atoms: _92  and  _93
REMARK   30  A    between atoms: _92  and  _95
REMARK   31  A    between atoms: _98  and  _100
REMARK   32  A    between atoms: _100  and  _101
REMARK   33  A    between atoms: _100  and  _103
REMARK   34  A    between atoms: _103  and  _104
REMARK   35  A    between atoms: _107  and  _109
REMARK   36  A    between atoms: _109  and  _110
REMARK   37  A    between atoms: _113  and  _115
REMARK   38  A    between atoms: _115  and  _116
REMARK   39  A    between atoms: _115  and  _118
REMARK   40  A    between atoms: _118  and  _119
REMARK   41  A    between atoms: _119  and  _120
REMARK   42  A    between atoms: _120  and  _121
REMARK   43  A    between atoms: _121  and  _122
REMARK   44  A    between atoms: _126  and  _128
REMARK   45  A    between atoms: _128  and  _129
REMARK   46  A    between atoms: _128  and  _131
REMARK   47  A    between atoms: _131  and  _132
REMARK   48  A    between atoms: _135  and  _137
REMARK   49  A    between atoms: _137  and  _138
REMARK   50  A    between atoms: _137  and  _140
REMARK   51  A    between atoms: _140  and  _141
REMARK   52  A    between atoms: _144  and  _146
REMARK   53  A    between atoms: _146  and  _147
REMARK   54  A    between atoms: _146  and  _149
REMARK   55  A    between atoms: _149  and  _150
REMARK   56  A    between atoms: _155  and  _156
REMARK   57  A    between atoms: _158  and  _160
REMARK   58  A    between atoms: _160  and  _161
REMARK   59  A    between atoms: _160  and  _163
REMARK   60  A    between atoms: _163  and  _164
REMARK   61  A    between atoms: _167  and  _169
REMARK   62  A    between atoms: _169  and  _170
REMARK   63  A    between atoms: _169  and  _172
REMARK   64  A    between atoms: _172  and  _173
REMARK   65  A    between atoms: _173  and  _174
REMARK   66  A    between atoms: _176  and  _178
REMARK   67  A    between atoms: _178  and  _179
REMARK   68  A    between atoms: _178  and  _181
REMARK   69  A    between atoms: _181  and  _182
REMARK   70  A    between atoms: _185  and  _187
REMARK   71  A    between atoms: _187  and  _188
REMARK   72  A    between atoms: _187  and  _190
REMARK   73  A    between atoms: _190  and  _191
REMARK   74  A    between atoms: _191  and  _192
REMARK   75  A    between atoms: _194  and  _196
REMARK   76  A    between atoms: _196  and  _197
REMARK   77  A    between atoms: _196  and  _199
REMARK   78  A    between atoms: _199  and  _200
REMARK   79  A    between atoms: _206  and  _208
REMARK   80  A    between atoms: _208  and  _209
REMARK   81  A    between atoms: _208  and  _211
REMARK   82  A    between atoms: _211  and  _212
REMARK   83  A    between atoms: _217  and  _219
REMARK   84  A    between atoms: _219  and  _220
REMARK   85  A    between atoms: _219  and  _222
REMARK   86  A    between atoms: _224  and  _226
REMARK   87  A    between atoms: _226  and  _227
REMARK   88  A    between atoms: _226  and  _229
REMARK   89  A    between atoms: _229  and  _230
REMARK   90  A    between atoms: _235  and  _236
REMARK   91  A    between atoms: _238  and  _240
REMARK   92  A    between atoms: _240  and  _241
REMARK   93  A    between atoms: _240  and  _243
REMARK   94  A    between atoms: _243  and  _244
REMARK   95  A    between atoms: _247  and  _249
REMARK   96  A    between atoms: _249  and  _250
REMARK   97  A    between atoms: _249  and  _252
REMARK   98  A    between atoms: _252  and  _253
REMARK   99  A    between atoms: _258  and  _259
REMARK  100  A    between atoms: _261  and  _263
REMARK  101  A    between atoms: _263  and  _264
REMARK  102  A    between atoms: _263  and  _266
REMARK  103  A    between atoms: _266  and  _267
REMARK  104  A    between atoms: _272  and  _274
REMARK  105  A    between atoms: _274  and  _275
REMARK  106  A    between atoms: _274  and  _277
REMARK  107  A    between atoms: _277  and  _278
REMARK  108  A    between atoms: _278  and  _279
REMARK  109  A    between atoms: _279  and  _280
REMARK  110  A    between atoms: _280  and  _281
REMARK  111  A    between atoms: _285  and  _287
REMARK  112  A    between atoms: _287  and  _288
REMARK  113  A    between atoms: _287  and  _290
REMARK  114  A    between atoms: _290  and  _291
REMARK  115  A    between atoms: _294  and  _296
REMARK  116  A    between atoms: _296  and  _297
REMARK  117  A    between atoms: _296  and  _299
REMARK  118  A    between atoms: _299  and  _300
REMARK  119  A    between atoms: _303  and  _305
REMARK  120  A    between atoms: _305  and  _306
REMARK  121  A    between atoms: _305  and  _308
REMARK  122  A    between atoms: _308  and  _309
REMARK  123  A    between atoms: _312  and  _314
REMARK  124  A    between atoms: _314  and  _315
REMARK  125  A    between atoms: _314  and  _317
REMARK  126  A    between atoms: _320  and  _322
REMARK  127  A    between atoms: _322  and  _323
REMARK  128  A    between atoms: _322  and  _325
REMARK  129  A    between atoms: _325  and  _326
REMARK  130  A    between atoms: _326  and  _327
REMARK  131  A    between atoms: _329  and  _331
REMARK  132  A    between atoms: _331  and  _332
REMARK                            x       y       z     vdW  Elec       q    Type
REMARK                         _______ _______ _______ _____ _____    ______ ____
ROOT
ATOM      1  O   HOH     1      20.990  10.666 -17.174  0.00  0.00    +0.000 OA
ENDROOT
TORSDOF 0
REMARK  Name = ../refined-set-2016/4uyf/4uyf_pocket.pdb
REMARK  132 active torsions:
REMARK  status: ('A' for Active; 'I' for Inactive)
REMARK    1  A    between atoms: _1  and  _3
REMARK    2  A    between atoms: _3  and  _4
REMARK    3  A    between atoms: _3  and  _6
REMARK    4  A    between atoms: _6  and  _7
REMARK    5  A    between atoms: _13  and  _15
REMARK    6  A    between atoms: _15  and  _16
REMARK    7  A    between atoms: _19  and  _21
REMARK    8  A    between atoms: _21  and  _22
REMARK    9  A    between atoms: _21  and  _24
REMARK   10  A    between atoms: _24  and  _25
REMARK   11  A    between atoms: _36  and  _37
REMARK   12  A    between atoms: _42  and  _44
REMARK   13  A    between atoms: _44  and  _45
REMARK   14  A    between atoms: _44  and  _47
REMARK   15  A    between atoms: _47  and  _48
REMARK   16  A    between atoms: _54  and  _56
REMARK   17  A    between atoms: _56  and  _57
REMARK   18  A    between atoms: _56  and  _59
REMARK   19  A    between atoms: _59  and  _60
REMARK   20  A    between atoms: _60  and  _61
REMARK   21  A    between atoms: _61  and  _62
REMARK   22  A    between atoms: _71  and  _73
REMARK   23  A    between atoms: _73  and  _74
REMARK   24  A    between atoms: _73  and  _76
REMARK   25  A    between atoms: _76  and  _77
REMARK   26  A    between atoms: _77  and  _78
REMARK   27  A    between atoms: _84  and  _85
REMARK   28  A    between atoms: _90  and  _92
REMARK   29  A    between atoms: _92  and  _93
REMARK   30  A    between atoms: _92  and  _95
REMARK   31  A    between atoms: _98  and  _100
REMARK   32  A    between atoms: _100  and  _101
REMARK   33  A    between atoms: _100  and  _103
REMARK   34  A    between atoms: _103  and  _104
REMARK   35  A    between atoms: _107  and  _109
REMARK   36  A    between atoms: _109  and  _110
REMARK   37  A    between atoms: _113  and  _115
REMARK   38  A    between atoms: _115  and  _116
REMARK   39  A    between atoms: _115  and  _118
REMARK   40  A    between atoms: _118  and  _119
REMARK   41  A    between atoms: _119  and  _120
REMARK   42  A    between atoms: _120  and  _121
REMARK   43  A    between atoms: _121  and  _122
REMARK   44  A    between atoms: _126  and  _128
REMARK   45  A    between atoms: _128  and  _129
REMARK   46  A    between atoms: _128  and  _131
REMARK   47  A    between atoms: _131  and  _132
REMARK   48  A    between atoms: _135  and  _137
REMARK   49  A    between atoms: _137  and  _138
REMARK   50  A    between atoms: _137  and  _140
REMARK   51  A    between atoms: _140  and  _141
REMARK   52  A    between atoms: _144  and  _146
REMARK   53  A    between atoms: _146  and  _147
REMARK   54  A    between atoms: _146  and  _149
REMARK   55  A    between atoms: _149  and  _150
REMARK   56  A    between atoms: _155  and  _156
REMARK   57  A    between atoms: _158  and  _160
REMARK   58  A    between atoms: _160  and  _161
REMARK   59  A    between atoms: _160  and  _163
REMARK   60  A    between atoms: _163  and  _164
REMARK   61  A    between atoms: _167  and  _169
REMARK   62  A    between atoms: _169  and  _170
REMARK   63  A    between atoms: _169  and  _172
REMARK   64  A    between atoms: _172  and  _173
REMARK   65  A    between atoms: _173  and  _174
REMARK   66  A    between atoms: _176  and  _178
REMARK   67  A    between atoms: _178  and  _179
REMARK   68  A    between atoms: _178  and  _181
REMARK   69  A    between atoms: _181  and  _182
REMARK   70  A    between atoms: _185  and  _187
REMARK   71  A    between atoms: _187  and  _188
REMARK   72  A    between atoms: _187  and  _190
REMARK   73  A    between atoms: _190  and  _191
REMARK   74  A    between atoms: _191  and  _192
REMARK   75  A    between atoms: _194  and  _196
REMARK   76  A    between atoms: _196  and  _197
REMARK   77  A    between atoms: _196  and  _199
REMARK   78  A    between atoms: _199  and  _200
REMARK   79  A    between atoms: _206  and  _208
REMARK   80  A    between atoms: _208  and  _209
REMARK   81  A    between atoms: _208  and  _211
REMARK   82  A    between atoms: _211  and  _212
REMARK   83  A    between atoms: _217  and  _219
REMARK   84  A    between atoms: _219  and  _220
REMARK   85  A    between atoms: _219  and  _222
REMARK   86  A    between atoms: _224  and  _226
REMARK   87  A    between atoms: _226  and  _227
REMARK   88  A    between atoms: _226  and  _229
REMARK   89  A    between atoms: _229  and  _230
REMARK   90  A    between atoms: _235  and  _236
REMARK   91  A    between atoms: _238  and  _240
REMARK   92  A    between atoms: _240  and  _241
REMARK   93  A    between atoms: _240  and  _243
REMARK   94  A    between atoms: _243  and  _244
REMARK   95  A    between atoms: _247  and  _249
REMARK   96  A    between atoms: _249  and  _250
REMARK   97  A    between atoms: _249  and  _252
REMARK   98  A    between atoms: _252  and  _253
REMARK   99  A    between atoms: _258  and  _259
REMARK  100  A    between atoms: _261  and  _263
REMARK  101  A    between atoms: _263  and  _264
REMARK  102  A    between atoms: _263  and  _266
REMARK  103  A    between atoms: _266  and  _267
REMARK  104  A    between atoms: _272  and  _274
REMARK  105  A    between atoms: _274  and  _275
REMARK  106  A    between atoms: _274  and  _277
REMARK  107  A    between atoms: _277  and  _278
REMARK  108  A    between atoms: _278  and  _279
REMARK  109  A    between atoms: _279  and  _280
REMARK  110  A    between atoms: _280  and  _281
REMARK  111  A    between atoms: _285  and  _287
REMARK  112  A    between atoms: _287  and  _288
REMARK  113  A    between atoms: _287  and  _290
REMARK  114  A    between atoms: _290  and  _291
REMARK  115  A    between atoms: _294  and  _296
REMARK  116  A    between atoms: _296  and  _297
REMARK  117  A    between atoms: _296  and  _299
REMARK  118  A    between atoms: _299  and  _300
REMARK  119  A    between atoms: _303  and  _305
REMARK  120  A    between atoms: _305  and  _306
REMARK  121  A    between atoms: _305  and  _308
REMARK  122  A    between atoms: _308  and  _309
REMARK  123  A    between atoms: _312  and  _314
REMARK  124  A    between atoms: _314  and  _315
REMARK  125  A    between atoms: _314  and  _317
REMARK  126  A    between atoms: _320  and  _322
REMARK  127  A    between atoms: _322  and  _323
REMARK  128  A    between atoms: _322  and  _325
REMARK  129  A    between atoms: _325  and  _326
REMARK  130  A    between atoms: _326  and  _327
REMARK  131  A    between atoms: _329  and  _331
REMARK  132  A    between atoms: _331  and  _332
REMARK                            x       y       z     vdW  Elec       q    Type
REMARK                         _______ _______ _______ _____ _____    ______ ____
ROOT
ATOM      1  O   HOH     1      18.948  12.825 -17.029  0.00  0.00    +0.000 OA
ENDROOT
TORSDOF 0
REMARK  Name = ../refined-set-2016/4uyf/4uyf_pocket.pdb
REMARK  132 active torsions:
REMARK  status: ('A' for Active; 'I' for Inactive)
REMARK    1  A    between atoms: _1  and  _3
REMARK    2  A    between atoms: _3  and  _4
REMARK    3  A    between atoms: _3  and  _6
REMARK    4  A    between atoms: _6  and  _7
REMARK    5  A    between atoms: _13  and  _15
REMARK    6  A    between atoms: _15  and  _16
REMARK    7  A    between atoms: _19  and  _21
REMARK    8  A    between atoms: _21  and  _22
REMARK    9  A    between atoms: _21  and  _24
REMARK   10  A    between atoms: _24  and  _25
REMARK   11  A    between atoms: _36  and  _37
REMARK   12  A    between atoms: _42  and  _44
REMARK   13  A    between atoms: _44  and  _45
REMARK   14  A    between atoms: _44  and  _47
REMARK   15  A    between atoms: _47  and  _48
REMARK   16  A    between atoms: _54  and  _56
REMARK   17  A    between atoms: _56  and  _57
REMARK   18  A    between atoms: _56  and  _59
REMARK   19  A    between atoms: _59  and  _60
REMARK   20  A    between atoms: _60  and  _61
REMARK   21  A    between atoms: _61  and  _62
REMARK   22  A    between atoms: _71  and  _73
REMARK   23  A    between atoms: _73  and  _74
REMARK   24  A    between atoms: _73  and  _76
REMARK   25  A    between atoms: _76  and  _77
REMARK   26  A    between atoms: _77  and  _78
REMARK   27  A    between atoms: _84  and  _85
REMARK   28  A    between atoms: _90  and  _92
REMARK   29  A    between atoms: _92  and  _93
REMARK   30  A    between atoms: _92  and  _95
REMARK   31  A    between atoms: _98  and  _100
REMARK   32  A    between atoms: _100  and  _101
REMARK   33  A    between atoms: _100  and  _103
REMARK   34  A    between atoms: _103  and  _104
REMARK   35  A    between atoms: _107  and  _109
REMARK   36  A    between atoms: _109  and  _110
REMARK   37  A    between atoms: _113  and  _115
REMARK   38  A    between atoms: _115  and  _116
REMARK   39  A    between atoms: _115  and  _118
REMARK   40  A    between atoms: _118  and  _119
REMARK   41  A    between atoms: _119  and  _120
REMARK   42  A    between atoms: _120  and  _121
REMARK   43  A    between atoms: _121  and  _122
REMARK   44  A    between atoms: _126  and  _128
REMARK   45  A    between atoms: _128  and  _129
REMARK   46  A    between atoms: _128  and  _131
REMARK   47  A    between atoms: _131  and  _132
REMARK   48  A    between atoms: _135  and  _137
REMARK   49  A    between atoms: _137  and  _138
REMARK   50  A    between atoms: _137  and  _140
REMARK   51  A    between atoms: _140  and  _141
REMARK   52  A    between atoms: _144  and  _146
REMARK   53  A    between atoms: _146  and  _147
REMARK   54  A    between atoms: _146  and  _149
REMARK   55  A    between atoms: _149  and  _150
REMARK   56  A    between atoms: _155  and  _156
REMARK   57  A    between atoms: _158  and  _160
REMARK   58  A    between atoms: _160  and  _161
REMARK   59  A    between atoms: _160  and  _163
REMARK   60  A    between atoms: _163  and  _164
REMARK   61  A    between atoms: _167  and  _169
REMARK   62  A    between atoms: _169  and  _170
REMARK   63  A    between atoms: _169  and  _172
REMARK   64  A    between atoms: _172  and  _173
REMARK   65  A    between atoms: _173  and  _174
REMARK   66  A    between atoms: _176  and  _178
REMARK   67  A    between atoms: _178  and  _179
REMARK   68  A    between atoms: _178  and  _181
REMARK   69  A    between atoms: _181  and  _182
REMARK   70  A    between atoms: _185  and  _187
REMARK   71  A    between atoms: _187  and  _188
REMARK   72  A    between atoms: _187  and  _190
REMARK   73  A    between atoms: _190  and  _191
REMARK   74  A    between atoms: _191  and  _192
REMARK   75  A    between atoms: _194  and  _196
REMARK   76  A    between atoms: _196  and  _197
REMARK   77  A    between atoms: _196  and  _199
REMARK   78  A    between atoms: _199  and  _200
REMARK   79  A    between atoms: _206  and  _208
REMARK   80  A    between atoms: _208  and  _209
REMARK   81  A    between atoms: _208  and  _211
REMARK   82  A    between atoms: _211  and  _212
REMARK   83  A    between atoms: _217  and  _219
REMARK   84  A    between atoms: _219  and  _220
REMARK   85  A    between atoms: _219  and  _222
REMARK   86  A    between atoms: _224  and  _226
REMARK   87  A    between atoms: _226  and  _227
REMARK   88  A    between atoms: _226  and  _229
REMARK   89  A    between atoms: _229  and  _230
REMARK   90  A    between atoms: _235  and  _236
REMARK   91  A    between atoms: _238  and  _240
REMARK   92  A    between atoms: _240  and  _241
REMARK   93  A    between atoms: _240  and  _243
REMARK   94  A    between atoms: _243  and  _244
REMARK   95  A    between atoms: _247  and  _249
REMARK   96  A    between atoms: _249  and  _250
REMARK   97  A    between atoms: _249  and  _252
REMARK   98  A    between atoms: _252  and  _253
REMARK   99  A    between atoms: _258  and  _259
REMARK  100  A    between atoms: _261  and  _263
REMARK  101  A    between atoms: _263  and  _264
REMARK  102  A    between atoms: _263  and  _266
REMARK  103  A    between atoms: _266  and  _267
REMARK  104  A    between atoms: _272  and  _274
REMARK  105  A    between atoms: _274  and  _275
REMARK  106  A    between atoms: _274  and  _277
REMARK  107  A    between atoms: _277  and  _278
REMARK  108  A    between atoms: _278  and  _279
REMARK  109  A    between atoms: _279  and  _280
REMARK  110  A    between atoms: _280  and  _281
REMARK  111  A    between atoms: _285  and  _287
REMARK  112  A    between atoms: _287  and  _288
REMARK  113  A    between atoms: _287  and  _290
REMARK  114  A    between atoms: _290  and  _291
REMARK  115  A    between atoms: _294  and  _296
REMARK  116  A    between atoms: _296  and  _297
REMARK  117  A    between atoms: _296  and  _299
REMARK  118  A    between atoms: _299  and  _300
REMARK  119  A    between atoms: _303  and  _305
REMARK  120  A    between atoms: _305  and  _306
REMARK  121  A    between atoms: _305  and  _308
REMARK  122  A    between atoms: _308  and  _309
REMARK  123  A    between atoms: _312  and  _314
REMARK  124  A    between atoms: _314  and  _315
REMARK  125  A    between atoms: _314  and  _317
REMARK  126  A    between atoms: _320  and  _322
REMARK  127  A    between atoms: _322  and  _323
REMARK  128  A    between atoms: _322  and  _325
REMARK  129  A    between atoms: _325  and  _326
REMARK  130  A    between atoms: _326  and  _327
REMARK  131  A    between atoms: _329  and  _331
REMARK  132  A    between atoms: _331  and  _332
REMARK                            x       y       z     vdW  Elec       q    Type
REMARK                         _______ _______ _______ _____ _____    ______ ____
ROOT
ATOM      1  O   HOH     1      20.220   3.045  -5.309  0.00  0.00    +0.000 OA
ENDROOT
TORSDOF 0
REMARK  Name = ../refined-set-2016/4uyf/4uyf_pocket.pdb
REMARK  132 active torsions:
REMARK  status: ('A' for Active; 'I' for Inactive)
REMARK    1  A    between atoms: _1  and  _3
REMARK    2  A    between atoms: _3  and  _4
REMARK    3  A    between atoms: _3  and  _6
REMARK    4  A    between atoms: _6  and  _7
REMARK    5  A    between atoms: _13  and  _15
REMARK    6  A    between atoms: _15  and  _16
REMARK    7  A    between atoms: _19  and  _21
REMARK    8  A    between atoms: _21  and  _22
REMARK    9  A    between atoms: _21  and  _24
REMARK   10  A    between atoms: _24  and  _25
REMARK   11  A    between atoms: _36  and  _37
REMARK   12  A    between atoms: _42  and  _44
REMARK   13  A    between atoms: _44  and  _45
REMARK   14  A    between atoms: _44  and  _47
REMARK   15  A    between atoms: _47  and  _48
REMARK   16  A    between atoms: _54  and  _56
REMARK   17  A    between atoms: _56  and  _57
REMARK   18  A    between atoms: _56  and  _59
REMARK   19  A    between atoms: _59  and  _60
REMARK   20  A    between atoms: _60  and  _61
REMARK   21  A    between atoms: _61  and  _62
REMARK   22  A    between atoms: _71  and  _73
REMARK   23  A    between atoms: _73  and  _74
REMARK   24  A    between atoms: _73  and  _76
REMARK   25  A    between atoms: _76  and  _77
REMARK   26  A    between atoms: _77  and  _78
REMARK   27  A    between atoms: _84  and  _85
REMARK   28  A    between atoms: _90  and  _92
REMARK   29  A    between atoms: _92  and  _93
REMARK   30  A    between atoms: _92  and  _95
REMARK   31  A    between atoms: _98  and  _100
REMARK   32  A    between atoms: _100  and  _101
REMARK   33  A    between atoms: _100  and  _103
REMARK   34  A    between atoms: _103  and  _104
REMARK   35  A    between atoms: _107  and  _109
REMARK   36  A    between atoms: _109  and  _110
REMARK   37  A    between atoms: _113  and  _115
REMARK   38  A    between atoms: _115  and  _116
REMARK   39  A    between atoms: _115  and  _118
REMARK   40  A    between atoms: _118  and  _119
REMARK   41  A    between atoms: _119  and  _120
REMARK   42  A    between atoms: _120  and  _121
REMARK   43  A    between atoms: _121  and  _122
REMARK   44  A    between atoms: _126  and  _128
REMARK   45  A    between atoms: _128  and  _129
REMARK   46  A    between atoms: _128  and  _131
REMARK   47  A    between atoms: _131  and  _132
REMARK   48  A    between atoms: _135  and  _137
REMARK   49  A    between atoms: _137  and  _138
REMARK   50  A    between atoms: _137  and  _140
REMARK   51  A    between atoms: _140  and  _141
REMARK   52  A    between atoms: _144  and  _146
REMARK   53  A    between atoms: _146  and  _147
REMARK   54  A    between atoms: _146  and  _149
REMARK   55  A    between atoms: _149  and  _150
REMARK   56  A    between atoms: _155  and  _156
REMARK   57  A    between atoms: _158  and  _160
REMARK   58  A    between atoms: _160  and  _161
REMARK   59  A    between atoms: _160  and  _163
REMARK   60  A    between atoms: _163  and  _164
REMARK   61  A    between atoms: _167  and  _169
REMARK   62  A    between atoms: _169  and  _170
REMARK   63  A    between atoms: _169  and  _172
REMARK   64  A    between atoms: _172  and  _173
REMARK   65  A    between atoms: _173  and  _174
REMARK   66  A    between atoms: _176  and  _178
REMARK   67  A    between atoms: _178  and  _179
REMARK   68  A    between atoms: _178  and  _181
REMARK   69  A    between atoms: _181  and  _182
REMARK   70  A    between atoms: _185  and  _187
REMARK   71  A    between atoms: _187  and  _188
REMARK   72  A    between atoms: _187  and  _190
REMARK   73  A    between atoms: _190  and  _191
REMARK   74  A    between atoms: _191  and  _192
REMARK   75  A    between atoms: _194  and  _196
REMARK   76  A    between atoms: _196  and  _197
REMARK   77  A    between atoms: _196  and  _199
REMARK   78  A    between atoms: _199  and  _200
REMARK   79  A    between atoms: _206  and  _208
REMARK   80  A    between atoms: _208  and  _209
REMARK   81  A    between atoms: _208  and  _211
REMARK   82  A    between atoms: _211  and  _212
REMARK   83  A    between atoms: _217  and  _219
REMARK   84  A    between atoms: _219  and  _220
REMARK   85  A    between atoms: _219  and  _222
REMARK   86  A    between atoms: _224  and  _226
REMARK   87  A    between atoms: _226  and  _227
REMARK   88  A    between atoms: _226  and  _229
REMARK   89  A    between atoms: _229  and  _230
REMARK   90  A    between atoms: _235  and  _236
REMARK   91  A    between atoms: _238  and  _240
REMARK   92  A    between atoms: _240  and  _241
REMARK   93  A    between atoms: _240  and  _243
REMARK   94  A    between atoms: _243  and  _244
REMARK   95  A    between atoms: _247  and  _249
REMARK   96  A    between atoms: _249  and  _250
REMARK   97  A    between atoms: _249  and  _252
REMARK   98  A    between atoms: _252  and  _253
REMARK   99  A    between atoms: _258  and  _259
REMARK  100  A    between atoms: _261  and  _263
REMARK  101  A    between atoms: _263  and  _264
REMARK  102  A    between atoms: _263  and  _266
REMARK  103  A    between atoms: _266  and  _267
REMARK  104  A    between atoms: _272  and  _274
REMARK  105  A    between atoms: _274  and  _275
REMARK  106  A    between atoms: _274  and  _277
REMARK  107  A    between atoms: _277  and  _278
REMARK  108  A    between atoms: _278  and  _279
REMARK  109  A    between atoms: _279  and  _280
REMARK  110  A    between atoms: _280  and  _281
REMARK  111  A    between atoms: _285  and  _287
REMARK  112  A    between atoms: _287  and  _288
REMARK  113  A    between atoms: _287  and  _290
REMARK  114  A    between atoms: _290  and  _291
REMARK  115  A    between atoms: _294  and  _296
REMARK  116  A    between atoms: _296  and  _297
REMARK  117  A    between atoms: _296  and  _299
REMARK  118  A    between atoms: _299  and  _300
REMARK  119  A    between atoms: _303  and  _305
REMARK  120  A    between atoms: _305  and  _306
REMARK  121  A    between atoms: _305  and  _308
REMARK  122  A    between atoms: _308  and  _309
REMARK  123  A    between atoms: _312  and  _314
REMARK  124  A    between atoms: _314  and  _315
REMARK  125  A    between atoms: _314  and  _317
REMARK  126  A    between atoms: _320  and  _322
REMARK  127  A    between atoms: _322  and  _323
REMARK  128  A    between atoms: _322  and  _325
REMARK  129  A    between atoms: _325  and  _326
REMARK  130  A    between atoms: _326  and  _327
REMARK  131  A    between atoms: _329  and  _331
REMARK  132  A    between atoms: _331  and  _332
REMARK                            x       y       z     vdW  Elec       q    Type
REMARK                         _______ _______ _______ _____ _____    ______ ____
ROOT
ATOM      1  O   HOH     1      22.470   6.021  -6.560  0.00  0.00    +0.000 OA
ENDROOT
TORSDOF 0
REMARK  Name = ../refined-set-2016/4uyf/4uyf_pocket.pdb
REMARK  132 active torsions:
REMARK  status: ('A' for Active; 'I' for Inactive)
REMARK    1  A    between atoms: _1  and  _3
REMARK    2  A    between atoms: _3  and  _4
REMARK    3  A    between atoms: _3  and  _6
REMARK    4  A    between atoms: _6  and  _7
REMARK    5  A    between atoms: _13  and  _15
REMARK    6  A    between atoms: _15  and  _16
REMARK    7  A    between atoms: _19  and  _21
REMARK    8  A    between atoms: _21  and  _22
REMARK    9  A    between atoms: _21  and  _24
REMARK   10  A    between atoms: _24  and  _25
REMARK   11  A    between atoms: _36  and  _37
REMARK   12  A    between atoms: _42  and  _44
REMARK   13  A    between atoms: _44  and  _45
REMARK   14  A    between atoms: _44  and  _47
REMARK   15  A    between atoms: _47  and  _48
REMARK   16  A    between atoms: _54  and  _56
REMARK   17  A    between atoms: _56  and  _57
REMARK   18  A    between atoms: _56  and  _59
REMARK   19  A    between atoms: _59  and  _60
REMARK   20  A    between atoms: _60  and  _61
REMARK   21  A    between atoms: _61  and  _62
REMARK   22  A    between atoms: _71  and  _73
REMARK   23  A    between atoms: _73  and  _74
REMARK   24  A    between atoms: _73  and  _76
REMARK   25  A    between atoms: _76  and  _77
REMARK   26  A    between atoms: _77  and  _78
REMARK   27  A    between atoms: _84  and  _85
REMARK   28  A    between atoms: _90  and  _92
REMARK   29  A    between atoms: _92  and  _93
REMARK   30  A    between atoms: _92  and  _95
REMARK   31  A    between atoms: _98  and  _100
REMARK   32  A    between atoms: _100  and  _101
REMARK   33  A    between atoms: _100  and  _103
REMARK   34  A    between atoms: _103  and  _104
REMARK   35  A    between atoms: _107  and  _109
REMARK   36  A    between atoms: _109  and  _110
REMARK   37  A    between atoms: _113  and  _115
REMARK   38  A    between atoms: _115  and  _116
REMARK   39  A    between atoms: _115  and  _118
REMARK   40  A    between atoms: _118  and  _119
REMARK   41  A    between atoms: _119  and  _120
REMARK   42  A    between atoms: _120  and  _121
REMARK   43  A    between atoms: _121  and  _122
REMARK   44  A    between atoms: _126  and  _128
REMARK   45  A    between atoms: _128  and  _129
REMARK   46  A    between atoms: _128  and  _131
REMARK   47  A    between atoms: _131  and  _132
REMARK   48  A    between atoms: _135  and  _137
REMARK   49  A    between atoms: _137  and  _138
REMARK   50  A    between atoms: _137  and  _140
REMARK   51  A    between atoms: _140  and  _141
REMARK   52  A    between atoms: _144  and  _146
REMARK   53  A    between atoms: _146  and  _147
REMARK   54  A    between atoms: _146  and  _149
REMARK   55  A    between atoms: _149  and  _150
REMARK   56  A    between atoms: _155  and  _156
REMARK   57  A    between atoms: _158  and  _160
REMARK   58  A    between atoms: _160  and  _161
REMARK   59  A    between atoms: _160  and  _163
REMARK   60  A    between atoms: _163  and  _164
REMARK   61  A    between atoms: _167  and  _169
REMARK   62  A    between atoms: _169  and  _170
REMARK   63  A    between atoms: _169  and  _172
REMARK   64  A    between atoms: _172  and  _173
REMARK   65  A    between atoms: _173  and  _174
REMARK   66  A    between atoms: _176  and  _178
REMARK   67  A    between atoms: _178  and  _179
REMARK   68  A    between atoms: _178  and  _181
REMARK   69  A    between atoms: _181  and  _182
REMARK   70  A    between atoms: _185  and  _187
REMARK   71  A    between atoms: _187  and  _188
REMARK   72  A    between atoms: _187  and  _190
REMARK   73  A    between atoms: _190  and  _191
REMARK   74  A    between atoms: _191  and  _192
REMARK   75  A    between atoms: _194  and  _196
REMARK   76  A    between atoms: _196  and  _197
REMARK   77  A    between atoms: _196  and  _199
REMARK   78  A    between atoms: _199  and  _200
REMARK   79  A    between atoms: _206  and  _208
REMARK   80  A    between atoms: _208  and  _209
REMARK   81  A    between atoms: _208  and  _211
REMARK   82  A    between atoms: _211  and  _212
REMARK   83  A    between atoms: _217  and  _219
REMARK   84  A    between atoms: _219  and  _220
REMARK   85  A    between atoms: _219  and  _222
REMARK   86  A    between atoms: _224  and  _226
REMARK   87  A    between atoms: _226  and  _227
REMARK   88  A    between atoms: _226  and  _229
REMARK   89  A    between atoms: _229  and  _230
REMARK   90  A    between atoms: _235  and  _236
REMARK   91  A    between atoms: _238  and  _240
REMARK   92  A    between atoms: _240  and  _241
REMARK   93  A    between atoms: _240  and  _243
REMARK   94  A    between atoms: _243  and  _244
REMARK   95  A    between atoms: _247  and  _249
REMARK   96  A    between atoms: _249  and  _250
REMARK   97  A    between atoms: _249  and  _252
REMARK   98  A    between atoms: _252  and  _253
REMARK   99  A    between atoms: _258  and  _259
REMARK  100  A    between atoms: _261  and  _263
REMARK  101  A    between atoms: _263  and  _264
REMARK  102  A    between atoms: _263  and  _266
REMARK  103  A    between atoms: _266  and  _267
REMARK  104  A    between atoms: _272  and  _274
REMARK  105  A    between atoms: _274  and  _275
REMARK  106  A    between atoms: _274  and  _277
REMARK  107  A    between atoms: _277  and  _278
REMARK  108  A    between atoms: _278  and  _279
REMARK  109  A    between atoms: _279  and  _280
REMARK  110  A    between atoms: _280  and  _281
REMARK  111  A    between atoms: _285  and  _287
REMARK  112  A    between atoms: _287  and  _288
REMARK  113  A    between atoms: _287  and  _290
REMARK  114  A    between atoms: _290  and  _291
REMARK  115  A    between atoms: _294  and  _296
REMARK  116  A    between atoms: _296  and  _297
REMARK  117  A    between atoms: _296  and  _299
REMARK  118  A    between atoms: _299  and  _300
REMARK  119  A    between atoms: _303  and  _305
REMARK  120  A    between atoms: _305  and  _306
REMARK  121  A    between atoms: _305  and  _308
REMARK  122  A    between atoms: _308  and  _309
REMARK  123  A    between atoms: _312  and  _314
REMARK  124  A    between atoms: _314  and  _315
REMARK  125  A    between atoms: _314  and  _317
REMARK  126  A    between atoms: _320  and  _322
REMARK  127  A    between atoms: _322  and  _323
REMARK  128  A    between atoms: _322  and  _325
REMARK  129  A    between atoms: _325  and  _326
REMARK  130  A    between atoms: _326  and  _327
REMARK  131  A    between atoms: _329  and  _331
REMARK  132  A    between atoms: _331  and  _332
REMARK                            x       y       z     vdW  Elec       q    Type
REMARK                         _______ _______ _______ _____ _____    ______ ____
ROOT
ATOM      1  O   HOH     1      18.129   6.267  -4.428  0.00  0.00    +0.000 OA
ENDROOT
TORSDOF 0
REMARK  Name = ../refined-set-2016/4uyf/4uyf_pocket.pdb
REMARK  132 active torsions:
REMARK  status: ('A' for Active; 'I' for Inactive)
REMARK    1  A    between atoms: _1  and  _3
REMARK    2  A    between atoms: _3  and  _4
REMARK    3  A    between atoms: _3  and  _6
REMARK    4  A    between atoms: _6  and  _7
REMARK    5  A    between atoms: _13  and  _15
REMARK    6  A    between atoms: _15  and  _16
REMARK    7  A    between atoms: _19  and  _21
REMARK    8  A    between atoms: _21  and  _22
REMARK    9  A    between atoms: _21  and  _24
REMARK   10  A    between atoms: _24  and  _25
REMARK   11  A    between atoms: _36  and  _37
REMARK   12  A    between atoms: _42  and  _44
REMARK   13  A    between atoms: _44  and  _45
REMARK   14  A    between atoms: _44  and  _47
REMARK   15  A    between atoms: _47  and  _48
REMARK   16  A    between atoms: _54  and  _56
REMARK   17  A    between atoms: _56  and  _57
REMARK   18  A    between atoms: _56  and  _59
REMARK   19  A    between atoms: _59  and  _60
REMARK   20  A    between atoms: _60  and  _61
REMARK   21  A    between atoms: _61  and  _62
REMARK   22  A    between atoms: _71  and  _73
REMARK   23  A    between atoms: _73  and  _74
REMARK   24  A    between atoms: _73  and  _76
REMARK   25  A    between atoms: _76  and  _77
REMARK   26  A    between atoms: _77  and  _78
REMARK   27  A    between atoms: _84  and  _85
REMARK   28  A    between atoms: _90  and  _92
REMARK   29  A    between atoms: _92  and  _93
REMARK   30  A    between atoms: _92  and  _95
REMARK   31  A    between atoms: _98  and  _100
REMARK   32  A    between atoms: _100  and  _101
REMARK   33  A    between atoms: _100  and  _103
REMARK   34  A    between atoms: _103  and  _104
REMARK   35  A    between atoms: _107  and  _109
REMARK   36  A    between atoms: _109  and  _110
REMARK   37  A    between atoms: _113  and  _115
REMARK   38  A    between atoms: _115  and  _116
REMARK   39  A    between atoms: _115  and  _118
REMARK   40  A    between atoms: _118  and  _119
REMARK   41  A    between atoms: _119  and  _120
REMARK   42  A    between atoms: _120  and  _121
REMARK   43  A    between atoms: _121  and  _122
REMARK   44  A    between atoms: _126  and  _128
REMARK   45  A    between atoms: _128  and  _129
REMARK   46  A    between atoms: _128  and  _131
REMARK   47  A    between atoms: _131  and  _132
REMARK   48  A    between atoms: _135  and  _137
REMARK   49  A    between atoms: _137  and  _138
REMARK   50  A    between atoms: _137  and  _140
REMARK   51  A    between atoms: _140  and  _141
REMARK   52  A    between atoms: _144  and  _146
REMARK   53  A    between atoms: _146  and  _147
REMARK   54  A    between atoms: _146  and  _149
REMARK   55  A    between atoms: _149  and  _150
REMARK   56  A    between atoms: _155  and  _156
REMARK   57  A    between atoms: _158  and  _160
REMARK   58  A    between atoms: _160  and  _161
REMARK   59  A    between atoms: _160  and  _163
REMARK   60  A    between atoms: _163  and  _164
REMARK   61  A    between atoms: _167  and  _169
REMARK   62  A    between atoms: _169  and  _170
REMARK   63  A    between atoms: _169  and  _172
REMARK   64  A    between atoms: _172  and  _173
REMARK   65  A    between atoms: _173  and  _174
REMARK   66  A    between atoms: _176  and  _178
REMARK   67  A    between atoms: _178  and  _179
REMARK   68  A    between atoms: _178  and  _181
REMARK   69  A    between atoms: _181  and  _182
REMARK   70  A    between atoms: _185  and  _187
REMARK   71  A    between atoms: _187  and  _188
REMARK   72  A    between atoms: _187  and  _190
REMARK   73  A    between atoms: _190  and  _191
REMARK   74  A    between atoms: _191  and  _192
REMARK   75  A    between atoms: _194  and  _196
REMARK   76  A    between atoms: _196  and  _197
REMARK   77  A    between atoms: _196  and  _199
REMARK   78  A    between atoms: _199  and  _200
REMARK   79  A    between atoms: _206  and  _208
REMARK   80  A    between atoms: _208  and  _209
REMARK   81  A    between atoms: _208  and  _211
REMARK   82  A    between atoms: _211  and  _212
REMARK   83  A    between atoms: _217  and  _219
REMARK   84  A    between atoms: _219  and  _220
REMARK   85  A    between atoms: _219  and  _222
REMARK   86  A    between atoms: _224  and  _226
REMARK   87  A    between atoms: _226  and  _227
REMARK   88  A    between atoms: _226  and  _229
REMARK   89  A    between atoms: _229  and  _230
REMARK   90  A    between atoms: _235  and  _236
REMARK   91  A    between atoms: _238  and  _240
REMARK   92  A    between atoms: _240  and  _241
REMARK   93  A    between atoms: _240  and  _243
REMARK   94  A    between atoms: _243  and  _244
REMARK   95  A    between atoms: _247  and  _249
REMARK   96  A    between atoms: _249  and  _250
REMARK   97  A    between atoms: _249  and  _252
REMARK   98  A    between atoms: _252  and  _253
REMARK   99  A    between atoms: _258  and  _259
REMARK  100  A    between atoms: _261  and  _263
REMARK  101  A    between atoms: _263  and  _264
REMARK  102  A    between atoms: _263  and  _266
REMARK  103  A    between atoms: _266  and  _267
REMARK  104  A    between atoms: _272  and  _274
REMARK  105  A    between atoms: _274  and  _275
REMARK  106  A    between atoms: _274  and  _277
REMARK  107  A    between atoms: _277  and  _278
REMARK  108  A    between atoms: _278  and  _279
REMARK  109  A    between atoms: _279  and  _280
REMARK  110  A    between atoms: _280  and  _281
REMARK  111  A    between atoms: _285  and  _287
REMARK  112  A    between atoms: _287  and  _288
REMARK  113  A    between atoms: _287  and  _290
REMARK  114  A    between atoms: _290  and  _291
REMARK  115  A    between atoms: _294  and  _296
REMARK  116  A    between atoms: _296  and  _297
REMARK  117  A    between atoms: _296  and  _299
REMARK  118  A    between atoms: _299  and  _300
REMARK  119  A    between atoms: _303  and  _305
REMARK  120  A    between atoms: _305  and  _306
REMARK  121  A    between atoms: _305  and  _308
REMARK  122  A    between atoms: _308  and  _309
REMARK  123  A    between atoms: _312  and  _314
REMARK  124  A    between atoms: _314  and  _315
REMARK  125  A    between atoms: _314  and  _317
REMARK  126  A    between atoms: _320  and  _322
REMARK  127  A    between atoms: _322  and  _323
REMARK  128  A    between atoms: _322  and  _325
REMARK  129  A    between atoms: _325  and  _326
REMARK  130  A    between atoms: _326  and  _327
REMARK  131  A    between atoms: _329  and  _331
REMARK  132  A    between atoms: _331  and  _332
REMARK                            x       y       z     vdW  Elec       q    Type
REMARK                         _______ _______ _______ _____ _____    ______ ____
ROOT
ATOM      1  O   HOH     1      20.828   5.783  -4.271  0.00  0.00    +0.000 OA
ENDROOT
TORSDOF 0
REMARK  Name = ../refined-set-2016/4uyf/4uyf_pocket.pdb
REMARK  132 active torsions:
REMARK  status: ('A' for Active; 'I' for Inactive)
REMARK    1  A    between atoms: _1  and  _3
REMARK    2  A    between atoms: _3  and  _4
REMARK    3  A    between atoms: _3  and  _6
REMARK    4  A    between atoms: _6  and  _7
REMARK    5  A    between atoms: _13  and  _15
REMARK    6  A    between atoms: _15  and  _16
REMARK    7  A    between atoms: _19  and  _21
REMARK    8  A    between atoms: _21  and  _22
REMARK    9  A    between atoms: _21  and  _24
REMARK   10  A    between atoms: _24  and  _25
REMARK   11  A    between atoms: _36  and  _37
REMARK   12  A    between atoms: _42  and  _44
REMARK   13  A    between atoms: _44  and  _45
REMARK   14  A    between atoms: _44  and  _47
REMARK   15  A    between atoms: _47  and  _48
REMARK   16  A    between atoms: _54  and  _56
REMARK   17  A    between atoms: _56  and  _57
REMARK   18  A    between atoms: _56  and  _59
REMARK   19  A    between atoms: _59  and  _60
REMARK   20  A    between atoms: _60  and  _61
REMARK   21  A    between atoms: _61  and  _62
REMARK   22  A    between atoms: _71  and  _73
REMARK   23  A    between atoms: _73  and  _74
REMARK   24  A    between atoms: _73  and  _76
REMARK   25  A    between atoms: _76  and  _77
REMARK   26  A    between atoms: _77  and  _78
REMARK   27  A    between atoms: _84  and  _85
REMARK   28  A    between atoms: _90  and  _92
REMARK   29  A    between atoms: _92  and  _93
REMARK   30  A    between atoms: _92  and  _95
REMARK   31  A    between atoms: _98  and  _100
REMARK   32  A    between atoms: _100  and  _101
REMARK   33  A    between atoms: _100  and  _103
REMARK   34  A    between atoms: _103  and  _104
REMARK   35  A    between atoms: _107  and  _109
REMARK   36  A    between atoms: _109  and  _110
REMARK   37  A    between atoms: _113  and  _115
REMARK   38  A    between atoms: _115  and  _116
REMARK   39  A    between atoms: _115  and  _118
REMARK   40  A    between atoms: _118  and  _119
REMARK   41  A    between atoms: _119  and  _120
REMARK   42  A    between atoms: _120  and  _121
REMARK   43  A    between atoms: _121  and  _122
REMARK   44  A    between atoms: _126  and  _128
REMARK   45  A    between atoms: _128  and  _129
REMARK   46  A    between atoms: _128  and  _131
REMARK   47  A    between atoms: _131  and  _132
REMARK   48  A    between atoms: _135  and  _137
REMARK   49  A    between atoms: _137  and  _138
REMARK   50  A    between atoms: _137  and  _140
REMARK   51  A    between atoms: _140  and  _141
REMARK   52  A    between atoms: _144  and  _146
REMARK   53  A    between atoms: _146  and  _147
REMARK   54  A    between atoms: _146  and  _149
REMARK   55  A    between atoms: _149  and  _150
REMARK   56  A    between atoms: _155  and  _156
REMARK   57  A    between atoms: _158  and  _160
REMARK   58  A    between atoms: _160  and  _161
REMARK   59  A    between atoms: _160  and  _163
REMARK   60  A    between atoms: _163  and  _164
REMARK   61  A    between atoms: _167  and  _169
REMARK   62  A    between atoms: _169  and  _170
REMARK   63  A    between atoms: _169  and  _172
REMARK   64  A    between atoms: _172  and  _173
REMARK   65  A    between atoms: _173  and  _174
REMARK   66  A    between atoms: _176  and  _178
REMARK   67  A    between atoms: _178  and  _179
REMARK   68  A    between atoms: _178  and  _181
REMARK   69  A    between atoms: _181  and  _182
REMARK   70  A    between atoms: _185  and  _187
REMARK   71  A    between atoms: _187  and  _188
REMARK   72  A    between atoms: _187  and  _190
REMARK   73  A    between atoms: _190  and  _191
REMARK   74  A    between atoms: _191  and  _192
REMARK   75  A    between atoms: _194  and  _196
REMARK   76  A    between atoms: _196  and  _197
REMARK   77  A    between atoms: _196  and  _199
REMARK   78  A    between atoms: _199  and  _200
REMARK   79  A    between atoms: _206  and  _208
REMARK   80  A    between atoms: _208  and  _209
REMARK   81  A    between atoms: _208  and  _211
REMARK   82  A    between atoms: _211  and  _212
REMARK   83  A    between atoms: _217  and  _219
REMARK   84  A    between atoms: _219  and  _220
REMARK   85  A    between atoms: _219  and  _222
REMARK   86  A    between atoms: _224  and  _226
REMARK   87  A    between atoms: _226  and  _227
REMARK   88  A    between atoms: _226  and  _229
REMARK   89  A    between atoms: _229  and  _230
REMARK   90  A    between atoms: _235  and  _236
REMARK   91  A    between atoms: _238  and  _240
REMARK   92  A    between atoms: _240  and  _241
REMARK   93  A    between atoms: _240  and  _243
REMARK   94  A    between atoms: _243  and  _244
REMARK   95  A    between atoms: _247  and  _249
REMARK   96  A    between atoms: _249  and  _250
REMARK   97  A    between atoms: _249  and  _252
REMARK   98  A    between atoms: _252  and  _253
REMARK   99  A    between atoms: _258  and  _259
REMARK  100  A    between atoms: _261  and  _263
REMARK  101  A    between atoms: _263  and  _264
REMARK  102  A    between atoms: _263  and  _266
REMARK  103  A    between atoms: _266  and  _267
REMARK  104  A    between atoms: _272  and  _274
REMARK  105  A    between atoms: _274  and  _275
REMARK  106  A    between atoms: _274  and  _277
REMARK  107  A    between atoms: _277  and  _278
REMARK  108  A    between atoms: _278  and  _279
REMARK  109  A    between atoms: _279  and  _280
REMARK  110  A    between atoms: _280  and  _281
REMARK  111  A    between atoms: _285  and  _287
REMARK  112  A    between atoms: _287  and  _288
REMARK  113  A    between atoms: _287  and  _290
REMARK  114  A    between atoms: _290  and  _291
REMARK  115  A    between atoms: _294  and  _296
REMARK  116  A    between atoms: _296  and  _297
REMARK  117  A    between atoms: _296  and  _299
REMARK  118  A    between atoms: _299  and  _300
REMARK  119  A    between atoms: _303  and  _305
REMARK  120  A    between atoms: _305  and  _306
REMARK  121  A    between atoms: _305  and  _308
REMARK  122  A    between atoms: _308  and  _309
REMARK  123  A    between atoms: _312  and  _314
REMARK  124  A    between atoms: _314  and  _315
REMARK  125  A    between atoms: _314  and  _317
REMARK  126  A    between atoms: _320  and  _322
REMARK  127  A    between atoms: _322  and  _323
REMARK  128  A    between atoms: _322  and  _325
REMARK  129  A    between atoms: _325  and  _326
REMARK  130  A    between atoms: _326  and  _327
REMARK  131  A    between atoms: _329  and  _331
REMARK  132  A    between atoms: _331  and  _332
REMARK                            x       y       z     vdW  Elec       q    Type
REMARK                         _______ _______ _______ _____ _____    ______ ____
ROOT
ATOM      1  O   HOH     1      29.328   7.901 -13.088  0.00  0.00    +0.000 OA
ENDROOT
TORSDOF 0
REMARK  Name = ../refined-set-2016/4uyf/4uyf_pocket.pdb
REMARK  132 active torsions:
REMARK  status: ('A' for Active; 'I' for Inactive)
REMARK    1  A    between atoms: _1  and  _3
REMARK    2  A    between atoms: _3  and  _4
REMARK    3  A    between atoms: _3  and  _6
REMARK    4  A    between atoms: _6  and  _7
REMARK    5  A    between atoms: _13  and  _15
REMARK    6  A    between atoms: _15  and  _16
REMARK    7  A    between atoms: _19  and  _21
REMARK    8  A    between atoms: _21  and  _22
REMARK    9  A    between atoms: _21  and  _24
REMARK   10  A    between atoms: _24  and  _25
REMARK   11  A    between atoms: _36  and  _37
REMARK   12  A    between atoms: _42  and  _44
REMARK   13  A    between atoms: _44  and  _45
REMARK   14  A    between atoms: _44  and  _47
REMARK   15  A    between atoms: _47  and  _48
REMARK   16  A    between atoms: _54  and  _56
REMARK   17  A    between atoms: _56  and  _57
REMARK   18  A    between atoms: _56  and  _59
REMARK   19  A    between atoms: _59  and  _60
REMARK   20  A    between atoms: _60  and  _61
REMARK   21  A    between atoms: _61  and  _62
REMARK   22  A    between atoms: _71  and  _73
REMARK   23  A    between atoms: _73  and  _74
REMARK   24  A    between atoms: _73  and  _76
REMARK   25  A    between atoms: _76  and  _77
REMARK   26  A    between atoms: _77  and  _78
REMARK   27  A    between atoms: _84  and  _85
REMARK   28  A    between atoms: _90  and  _92
REMARK   29  A    between atoms: _92  and  _93
REMARK   30  A    between atoms: _92  and  _95
REMARK   31  A    between atoms: _98  and  _100
REMARK   32  A    between atoms: _100  and  _101
REMARK   33  A    between atoms: _100  and  _103
REMARK   34  A    between atoms: _103  and  _104
REMARK   35  A    between atoms: _107  and  _109
REMARK   36  A    between atoms: _109  and  _110
REMARK   37  A    between atoms: _113  and  _115
REMARK   38  A    between atoms: _115  and  _116
REMARK   39  A    between atoms: _115  and  _118
REMARK   40  A    between atoms: _118  and  _119
REMARK   41  A    between atoms: _119  and  _120
REMARK   42  A    between atoms: _120  and  _121
REMARK   43  A    between atoms: _121  and  _122
REMARK   44  A    between atoms: _126  and  _128
REMARK   45  A    between atoms: _128  and  _129
REMARK   46  A    between atoms: _128  and  _131
REMARK   47  A    between atoms: _131  and  _132
REMARK   48  A    between atoms: _135  and  _137
REMARK   49  A    between atoms: _137  and  _138
REMARK   50  A    between atoms: _137  and  _140
REMARK   51  A    between atoms: _140  and  _141
REMARK   52  A    between atoms: _144  and  _146
REMARK   53  A    between atoms: _146  and  _147
REMARK   54  A    between atoms: _146  and  _149
REMARK   55  A    between atoms: _149  and  _150
REMARK   56  A    between atoms: _155  and  _156
REMARK   57  A    between atoms: _158  and  _160
REMARK   58  A    between atoms: _160  and  _161
REMARK   59  A    between atoms: _160  and  _163
REMARK   60  A    between atoms: _163  and  _164
REMARK   61  A    between atoms: _167  and  _169
REMARK   62  A    between atoms: _169  and  _170
REMARK   63  A    between atoms: _169  and  _172
REMARK   64  A    between atoms: _172  and  _173
REMARK   65  A    between atoms: _173  and  _174
REMARK   66  A    between atoms: _176  and  _178
REMARK   67  A    between atoms: _178  and  _179
REMARK   68  A    between atoms: _178  and  _181
REMARK   69  A    between atoms: _181  and  _182
REMARK   70  A    between atoms: _185  and  _187
REMARK   71  A    between atoms: _187  and  _188
REMARK   72  A    between atoms: _187  and  _190
REMARK   73  A    between atoms: _190  and  _191
REMARK   74  A    between atoms: _191  and  _192
REMARK   75  A    between atoms: _194  and  _196
REMARK   76  A    between atoms: _196  and  _197
REMARK   77  A    between atoms: _196  and  _199
REMARK   78  A    between atoms: _199  and  _200
REMARK   79  A    between atoms: _206  and  _208
REMARK   80  A    between atoms: _208  and  _209
REMARK   81  A    between atoms: _208  and  _211
REMARK   82  A    between atoms: _211  and  _212
REMARK   83  A    between atoms: _217  and  _219
REMARK   84  A    between atoms: _219  and  _220
REMARK   85  A    between atoms: _219  and  _222
REMARK   86  A    between atoms: _224  and  _226
REMARK   87  A    between atoms: _226  and  _227
REMARK   88  A    between atoms: _226  and  _229
REMARK   89  A    between atoms: _229  and  _230
REMARK   90  A    between atoms: _235  and  _236
REMARK   91  A    between atoms: _238  and  _240
REMARK   92  A    between atoms: _240  and  _241
REMARK   93  A    between atoms: _240  and  _243
REMARK   94  A    between atoms: _243  and  _244
REMARK   95  A    between atoms: _247  and  _249
REMARK   96  A    between atoms: _249  and  _250
REMARK   97  A    between atoms: _249  and  _252
REMARK   98  A    between atoms: _252  and  _253
REMARK   99  A    between atoms: _258  and  _259
REMARK  100  A    between atoms: _261  and  _263
REMARK  101  A    between atoms: _263  and  _264
REMARK  102  A    between atoms: _263  and  _266
REMARK  103  A    between atoms: _266  and  _267
REMARK  104  A    between atoms: _272  and  _274
REMARK  105  A    between atoms: _274  and  _275
REMARK  106  A    between atoms: _274  and  _277
REMARK  107  A    between atoms: _277  and  _278
REMARK  108  A    between atoms: _278  and  _279
REMARK  109  A    between atoms: _279  and  _280
REMARK  110  A    between atoms: _280  and  _281
REMARK  111  A    between atoms: _285  and  _287
REMARK  112  A    between atoms: _287  and  _288
REMARK  113  A    between atoms: _287  and  _290
REMARK  114  A    between atoms: _290  and  _291
REMARK  115  A    between atoms: _294  and  _296
REMARK  116  A    between atoms: _296  and  _297
REMARK  117  A    between atoms: _296  and  _299
REMARK  118  A    between atoms: _299  and  _300
REMARK  119  A    between atoms: _303  and  _305
REMARK  120  A    between atoms: _305  and  _306
REMARK  121  A    between atoms: _305  and  _308
REMARK  122  A    between atoms: _308  and  _309
REMARK  123  A    between atoms: _312  and  _314
REMARK  124  A    between atoms: _314  and  _315
REMARK  125  A    between atoms: _314  and  _317
REMARK  126  A    between atoms: _320  and  _322
REMARK  127  A    between atoms: _322  and  _323
REMARK  128  A    between atoms: _322  and  _325
REMARK  129  A    between atoms: _325  and  _326
REMARK  130  A    between atoms: _326  and  _327
REMARK  131  A    between atoms: _329  and  _331
REMARK  132  A    between atoms: _331  and  _332
REMARK                            x       y       z     vdW  Elec       q    Type
REMARK                         _______ _______ _______ _____ _____    ______ ____
ROOT
ATOM      1  O   HOH     1      24.662  12.350 -11.546  0.00  0.00    +0.000 OA
ENDROOT
TORSDOF 0
REMARK  Name = ../refined-set-2016/4uyf/4uyf_pocket.pdb
REMARK  132 active torsions:
REMARK  status: ('A' for Active; 'I' for Inactive)
REMARK    1  A    between atoms: _1  and  _3
REMARK    2  A    between atoms: _3  and  _4
REMARK    3  A    between atoms: _3  and  _6
REMARK    4  A    between atoms: _6  and  _7
REMARK    5  A    between atoms: _13  and  _15
REMARK    6  A    between atoms: _15  and  _16
REMARK    7  A    between atoms: _19  and  _21
REMARK    8  A    between atoms: _21  and  _22
REMARK    9  A    between atoms: _21  and  _24
REMARK   10  A    between atoms: _24  and  _25
REMARK   11  A    between atoms: _36  and  _37
REMARK   12  A    between atoms: _42  and  _44
REMARK   13  A    between atoms: _44  and  _45
REMARK   14  A    between atoms: _44  and  _47
REMARK   15  A    between atoms: _47  and  _48
REMARK   16  A    between atoms: _54  and  _56
REMARK   17  A    between atoms: _56  and  _57
REMARK   18  A    between atoms: _56  and  _59
REMARK   19  A    between atoms: _59  and  _60
REMARK   20  A    between atoms: _60  and  _61
REMARK   21  A    between atoms: _61  and  _62
REMARK   22  A    between atoms: _71  and  _73
REMARK   23  A    between atoms: _73  and  _74
REMARK   24  A    between atoms: _73  and  _76
REMARK   25  A    between atoms: _76  and  _77
REMARK   26  A    between atoms: _77  and  _78
REMARK   27  A    between atoms: _84  and  _85
REMARK   28  A    between atoms: _90  and  _92
REMARK   29  A    between atoms: _92  and  _93
REMARK   30  A    between atoms: _92  and  _95
REMARK   31  A    between atoms: _98  and  _100
REMARK   32  A    between atoms: _100  and  _101
REMARK   33  A    between atoms: _100  and  _103
REMARK   34  A    between atoms: _103  and  _104
REMARK   35  A    between atoms: _107  and  _109
REMARK   36  A    between atoms: _109  and  _110
REMARK   37  A    between atoms: _113  and  _115
REMARK   38  A    between atoms: _115  and  _116
REMARK   39  A    between atoms: _115  and  _118
REMARK   40  A    between atoms: _118  and  _119
REMARK   41  A    between atoms: _119  and  _120
REMARK   42  A    between atoms: _120  and  _121
REMARK   43  A    between atoms: _121  and  _122
REMARK   44  A    between atoms: _126  and  _128
REMARK   45  A    between atoms: _128  and  _129
REMARK   46  A    between atoms: _128  and  _131
REMARK   47  A    between atoms: _131  and  _132
REMARK   48  A    between atoms: _135  and  _137
REMARK   49  A    between atoms: _137  and  _138
REMARK   50  A    between atoms: _137  and  _140
REMARK   51  A    between atoms: _140  and  _141
REMARK   52  A    between atoms: _144  and  _146
REMARK   53  A    between atoms: _146  and  _147
REMARK   54  A    between atoms: _146  and  _149
REMARK   55  A    between atoms: _149  and  _150
REMARK   56  A    between atoms: _155  and  _156
REMARK   57  A    between atoms: _158  and  _160
REMARK   58  A    between atoms: _160  and  _161
REMARK   59  A    between atoms: _160  and  _163
REMARK   60  A    between atoms: _163  and  _164
REMARK   61  A    between atoms: _167  and  _169
REMARK   62  A    between atoms: _169  and  _170
REMARK   63  A    between atoms: _169  and  _172
REMARK   64  A    between atoms: _172  and  _173
REMARK   65  A    between atoms: _173  and  _174
REMARK   66  A    between atoms: _176  and  _178
REMARK   67  A    between atoms: _178  and  _179
REMARK   68  A    between atoms: _178  and  _181
REMARK   69  A    between atoms: _181  and  _182
REMARK   70  A    between atoms: _185  and  _187
REMARK   71  A    between atoms: _187  and  _188
REMARK   72  A    between atoms: _187  and  _190
REMARK   73  A    between atoms: _190  and  _191
REMARK   74  A    between atoms: _191  and  _192
REMARK   75  A    between atoms: _194  and  _196
REMARK   76  A    between atoms: _196  and  _197
REMARK   77  A    between atoms: _196  and  _199
REMARK   78  A    between atoms: _199  and  _200
REMARK   79  A    between atoms: _206  and  _208
REMARK   80  A    between atoms: _208  and  _209
REMARK   81  A    between atoms: _208  and  _211
REMARK   82  A    between atoms: _211  and  _212
REMARK   83  A    between atoms: _217  and  _219
REMARK   84  A    between atoms: _219  and  _220
REMARK   85  A    between atoms: _219  and  _222
REMARK   86  A    between atoms: _224  and  _226
REMARK   87  A    between atoms: _226  and  _227
REMARK   88  A    between atoms: _226  and  _229
REMARK   89  A    between atoms: _229  and  _230
REMARK   90  A    between atoms: _235  and  _236
REMARK   91  A    between atoms: _238  and  _240
REMARK   92  A    between atoms: _240  and  _241
REMARK   93  A    between atoms: _240  and  _243
REMARK   94  A    between atoms: _243  and  _244
REMARK   95  A    between atoms: _247  and  _249
REMARK   96  A    between atoms: _249  and  _250
REMARK   97  A    between atoms: _249  and  _252
REMARK   98  A    between atoms: _252  and  _253
REMARK   99  A    between atoms: _258  and  _259
REMARK  100  A    between atoms: _261  and  _263
REMARK  101  A    between atoms: _263  and  _264
REMARK  102  A    between atoms: _263  and  _266
REMARK  103  A    between atoms: _266  and  _267
REMARK  104  A    between atoms: _272  and  _274
REMARK  105  A    between atoms: _274  and  _275
REMARK  106  A    between atoms: _274  and  _277
REMARK  107  A    between atoms: _277  and  _278
REMARK  108  A    between atoms: _278  and  _279
REMARK  109  A    between atoms: _279  and  _280
REMARK  110  A    between atoms: _280  and  _281
REMARK  111  A    between atoms: _285  and  _287
REMARK  112  A    between atoms: _287  and  _288
REMARK  113  A    between atoms: _287  and  _290
REMARK  114  A    between atoms: _290  and  _291
REMARK  115  A    between atoms: _294  and  _296
REMARK  116  A    between atoms: _296  and  _297
REMARK  117  A    between atoms: _296  and  _299
REMARK  118  A    between atoms: _299  and  _300
REMARK  119  A    between atoms: _303  and  _305
REMARK  120  A    between atoms: _305  and  _306
REMARK  121  A    between atoms: _305  and  _308
REMARK  122  A    between atoms: _308  and  _309
REMARK  123  A    between atoms: _312  and  _314
REMARK  124  A    between atoms: _314  and  _315
REMARK  125  A    between atoms: _314  and  _317
REMARK  126  A    between atoms: _320  and  _322
REMARK  127  A    between atoms: _322  and  _323
REMARK  128  A    between atoms: _322  and  _325
REMARK  129  A    between atoms: _325  and  _326
REMARK  130  A    between atoms: _326  and  _327
REMARK  131  A    between atoms: _329  and  _331
REMARK  132  A    between atoms: _331  and  _332
REMARK                            x       y       z     vdW  Elec       q    Type
REMARK                         _______ _______ _______ _____ _____    ______ ____
ROOT
ATOM      1  O   HOH     1      25.532  17.360 -11.928  0.00  0.00    +0.000 OA
ENDROOT
TORSDOF 0
REMARK  Name = ../refined-set-2016/4uyf/4uyf_pocket.pdb
REMARK  132 active torsions:
REMARK  status: ('A' for Active; 'I' for Inactive)
REMARK    1  A    between atoms: _1  and  _3
REMARK    2  A    between atoms: _3  and  _4
REMARK    3  A    between atoms: _3  and  _6
REMARK    4  A    between atoms: _6  and  _7
REMARK    5  A    between atoms: _13  and  _15
REMARK    6  A    between atoms: _15  and  _16
REMARK    7  A    between atoms: _19  and  _21
REMARK    8  A    between atoms: _21  and  _22
REMARK    9  A    between atoms: _21  and  _24
REMARK   10  A    between atoms: _24  and  _25
REMARK   11  A    between atoms: _36  and  _37
REMARK   12  A    between atoms: _42  and  _44
REMARK   13  A    between atoms: _44  and  _45
REMARK   14  A    between atoms: _44  and  _47
REMARK   15  A    between atoms: _47  and  _48
REMARK   16  A    between atoms: _54  and  _56
REMARK   17  A    between atoms: _56  and  _57
REMARK   18  A    between atoms: _56  and  _59
REMARK   19  A    between atoms: _59  and  _60
REMARK   20  A    between atoms: _60  and  _61
REMARK   21  A    between atoms: _61  and  _62
REMARK   22  A    between atoms: _71  and  _73
REMARK   23  A    between atoms: _73  and  _74
REMARK   24  A    between atoms: _73  and  _76
REMARK   25  A    between atoms: _76  and  _77
REMARK   26  A    between atoms: _77  and  _78
REMARK   27  A    between atoms: _84  and  _85
REMARK   28  A    between atoms: _90  and  _92
REMARK   29  A    between atoms: _92  and  _93
REMARK   30  A    between atoms: _92  and  _95
REMARK   31  A    between atoms: _98  and  _100
REMARK   32  A    between atoms: _100  and  _101
REMARK   33  A    between atoms: _100  and  _103
REMARK   34  A    between atoms: _103  and  _104
REMARK   35  A    between atoms: _107  and  _109
REMARK   36  A    between atoms: _109  and  _110
REMARK   37  A    between atoms: _113  and  _115
REMARK   38  A    between atoms: _115  and  _116
REMARK   39  A    between atoms: _115  and  _118
REMARK   40  A    between atoms: _118  and  _119
REMARK   41  A    between atoms: _119  and  _120
REMARK   42  A    between atoms: _120  and  _121
REMARK   43  A    between atoms: _121  and  _122
REMARK   44  A    between atoms: _126  and  _128
REMARK   45  A    between atoms: _128  and  _129
REMARK   46  A    between atoms: _128  and  _131
REMARK   47  A    between atoms: _131  and  _132
REMARK   48  A    between atoms: _135  and  _137
REMARK   49  A    between atoms: _137  and  _138
REMARK   50  A    between atoms: _137  and  _140
REMARK   51  A    between atoms: _140  and  _141
REMARK   52  A    between atoms: _144  and  _146
REMARK   53  A    between atoms: _146  and  _147
REMARK   54  A    between atoms: _146  and  _149
REMARK   55  A    between atoms: _149  and  _150
REMARK   56  A    between atoms: _155  and  _156
REMARK   57  A    between atoms: _158  and  _160
REMARK   58  A    between atoms: _160  and  _161
REMARK   59  A    between atoms: _160  and  _163
REMARK   60  A    between atoms: _163  and  _164
REMARK   61  A    between atoms: _167  and  _169
REMARK   62  A    between atoms: _169  and  _170
REMARK   63  A    between atoms: _169  and  _172
REMARK   64  A    between atoms: _172  and  _173
REMARK   65  A    between atoms: _173  and  _174
REMARK   66  A    between atoms: _176  and  _178
REMARK   67  A    between atoms: _178  and  _179
REMARK   68  A    between atoms: _178  and  _181
REMARK   69  A    between atoms: _181  and  _182
REMARK   70  A    between atoms: _185  and  _187
REMARK   71  A    between atoms: _187  and  _188
REMARK   72  A    between atoms: _187  and  _190
REMARK   73  A    between atoms: _190  and  _191
REMARK   74  A    between atoms: _191  and  _192
REMARK   75  A    between atoms: _194  and  _196
REMARK   76  A    between atoms: _196  and  _197
REMARK   77  A    between atoms: _196  and  _199
REMARK   78  A    between atoms: _199  and  _200
REMARK   79  A    between atoms: _206  and  _208
REMARK   80  A    between atoms: _208  and  _209
REMARK   81  A    between atoms: _208  and  _211
REMARK   82  A    between atoms: _211  and  _212
REMARK   83  A    between atoms: _217  and  _219
REMARK   84  A    between atoms: _219  and  _220
REMARK   85  A    between atoms: _219  and  _222
REMARK   86  A    between atoms: _224  and  _226
REMARK   87  A    between atoms: _226  and  _227
REMARK   88  A    between atoms: _226  and  _229
REMARK   89  A    between atoms: _229  and  _230
REMARK   90  A    between atoms: _235  and  _236
REMARK   91  A    between atoms: _238  and  _240
REMARK   92  A    between atoms: _240  and  _241
REMARK   93  A    between atoms: _240  and  _243
REMARK   94  A    between atoms: _243  and  _244
REMARK   95  A    between atoms: _247  and  _249
REMARK   96  A    between atoms: _249  and  _250
REMARK   97  A    between atoms: _249  and  _252
REMARK   98  A    between atoms: _252  and  _253
REMARK   99  A    between atoms: _258  and  _259
REMARK  100  A    between atoms: _261  and  _263
REMARK  101  A    between atoms: _263  and  _264
REMARK  102  A    between atoms: _263  and  _266
REMARK  103  A    between atoms: _266  and  _267
REMARK  104  A    between atoms: _272  and  _274
REMARK  105  A    between atoms: _274  and  _275
REMARK  106  A    between atoms: _274  and  _277
REMARK  107  A    between atoms: _277  and  _278
REMARK  108  A    between atoms: _278  and  _279
REMARK  109  A    between atoms: _279  and  _280
REMARK  110  A    between atoms: _280  and  _281
REMARK  111  A    between atoms: _285  and  _287
REMARK  112  A    between atoms: _287  and  _288
REMARK  113  A    between atoms: _287  and  _290
REMARK  114  A    between atoms: _290  and  _291
REMARK  115  A    between atoms: _294  and  _296
REMARK  116  A    between atoms: _296  and  _297
REMARK  117  A    between atoms: _296  and  _299
REMARK  118  A    between atoms: _299  and  _300
REMARK  119  A    between atoms: _303  and  _305
REMARK  120  A    between atoms: _305  and  _306
REMARK  121  A    between atoms: _305  and  _308
REMARK  122  A    between atoms: _308  and  _309
REMARK  123  A    between atoms: _312  and  _314
REMARK  124  A    between atoms: _314  and  _315
REMARK  125  A    between atoms: _314  and  _317
REMARK  126  A    between atoms: _320  and  _322
REMARK  127  A    between atoms: _322  and  _323
REMARK  128  A    between atoms: _322  and  _325
REMARK  129  A    between atoms: _325  and  _326
REMARK  130  A    between atoms: _326  and  _327
REMARK  131  A    between atoms: _329  and  _331
REMARK  132  A    between atoms: _331  and  _332
REMARK                            x       y       z     vdW  Elec       q    Type
REMARK                         _______ _______ _______ _____ _____    ______ ____
ROOT
ATOM      1  O   HOH     1      23.946  14.972 -10.632  0.00  0.00    +0.000 OA
ENDROOT
TORSDOF 0
REMARK  Name = ../refined-set-2016/4uyf/4uyf_pocket.pdb
REMARK  132 active torsions:
REMARK  status: ('A' for Active; 'I' for Inactive)
REMARK    1  A    between atoms: _1  and  _3
REMARK    2  A    between atoms: _3  and  _4
REMARK    3  A    between atoms: _3  and  _6
REMARK    4  A    between atoms: _6  and  _7
REMARK    5  A    between atoms: _13  and  _15
REMARK    6  A    between atoms: _15  and  _16
REMARK    7  A    between atoms: _19  and  _21
REMARK    8  A    between atoms: _21  and  _22
REMARK    9  A    between atoms: _21  and  _24
REMARK   10  A    between atoms: _24  and  _25
REMARK   11  A    between atoms: _36  and  _37
REMARK   12  A    between atoms: _42  and  _44
REMARK   13  A    between atoms: _44  and  _45
REMARK   14  A    between atoms: _44  and  _47
REMARK   15  A    between atoms: _47  and  _48
REMARK   16  A    between atoms: _54  and  _56
REMARK   17  A    between atoms: _56  and  _57
REMARK   18  A    between atoms: _56  and  _59
REMARK   19  A    between atoms: _59  and  _60
REMARK   20  A    between atoms: _60  and  _61
REMARK   21  A    between atoms: _61  and  _62
REMARK   22  A    between atoms: _71  and  _73
REMARK   23  A    between atoms: _73  and  _74
REMARK   24  A    between atoms: _73  and  _76
REMARK   25  A    between atoms: _76  and  _77
REMARK   26  A    between atoms: _77  and  _78
REMARK   27  A    between atoms: _84  and  _85
REMARK   28  A    between atoms: _90  and  _92
REMARK   29  A    between atoms: _92  and  _93
REMARK   30  A    between atoms: _92  and  _95
REMARK   31  A    between atoms: _98  and  _100
REMARK   32  A    between atoms: _100  and  _101
REMARK   33  A    between atoms: _100  and  _103
REMARK   34  A    between atoms: _103  and  _104
REMARK   35  A    between atoms: _107  and  _109
REMARK   36  A    between atoms: _109  and  _110
REMARK   37  A    between atoms: _113  and  _115
REMARK   38  A    between atoms: _115  and  _116
REMARK   39  A    between atoms: _115  and  _118
REMARK   40  A    between atoms: _118  and  _119
REMARK   41  A    between atoms: _119  and  _120
REMARK   42  A    between atoms: _120  and  _121
REMARK   43  A    between atoms: _121  and  _122
REMARK   44  A    between atoms: _126  and  _128
REMARK   45  A    between atoms: _128  and  _129
REMARK   46  A    between atoms: _128  and  _131
REMARK   47  A    between atoms: _131  and  _132
REMARK   48  A    between atoms: _135  and  _137
REMARK   49  A    between atoms: _137  and  _138
REMARK   50  A    between atoms: _137  and  _140
REMARK   51  A    between atoms: _140  and  _141
REMARK   52  A    between atoms: _144  and  _146
REMARK   53  A    between atoms: _146  and  _147
REMARK   54  A    between atoms: _146  and  _149
REMARK   55  A    between atoms: _149  and  _150
REMARK   56  A    between atoms: _155  and  _156
REMARK   57  A    between atoms: _158  and  _160
REMARK   58  A    between atoms: _160  and  _161
REMARK   59  A    between atoms: _160  and  _163
REMARK   60  A    between atoms: _163  and  _164
REMARK   61  A    between atoms: _167  and  _169
REMARK   62  A    between atoms: _169  and  _170
REMARK   63  A    between atoms: _169  and  _172
REMARK   64  A    between atoms: _172  and  _173
REMARK   65  A    between atoms: _173  and  _174
REMARK   66  A    between atoms: _176  and  _178
REMARK   67  A    between atoms: _178  and  _179
REMARK   68  A    between atoms: _178  and  _181
REMARK   69  A    between atoms: _181  and  _182
REMARK   70  A    between atoms: _185  and  _187
REMARK   71  A    between atoms: _187  and  _188
REMARK   72  A    between atoms: _187  and  _190
REMARK   73  A    between atoms: _190  and  _191
REMARK   74  A    between atoms: _191  and  _192
REMARK   75  A    between atoms: _194  and  _196
REMARK   76  A    between atoms: _196  and  _197
REMARK   77  A    between atoms: _196  and  _199
REMARK   78  A    between atoms: _199  and  _200
REMARK   79  A    between atoms: _206  and  _208
REMARK   80  A    between atoms: _208  and  _209
REMARK   81  A    between atoms: _208  and  _211
REMARK   82  A    between atoms: _211  and  _212
REMARK   83  A    between atoms: _217  and  _219
REMARK   84  A    between atoms: _219  and  _220
REMARK   85  A    between atoms: _219  and  _222
REMARK   86  A    between atoms: _224  and  _226
REMARK   87  A    between atoms: _226  and  _227
REMARK   88  A    between atoms: _226  and  _229
REMARK   89  A    between atoms: _229  and  _230
REMARK   90  A    between atoms: _235  and  _236
REMARK   91  A    between atoms: _238  and  _240
REMARK   92  A    between atoms: _240  and  _241
REMARK   93  A    between atoms: _240  and  _243
REMARK   94  A    between atoms: _243  and  _244
REMARK   95  A    between atoms: _247  and  _249
REMARK   96  A    between atoms: _249  and  _250
REMARK   97  A    between atoms: _249  and  _252
REMARK   98  A    between atoms: _252  and  _253
REMARK   99  A    between atoms: _258  and  _259
REMARK  100  A    between atoms: _261  and  _263
REMARK  101  A    between atoms: _263  and  _264
REMARK  102  A    between atoms: _263  and  _266
REMARK  103  A    between atoms: _266  and  _267
REMARK  104  A    between atoms: _272  and  _274
REMARK  105  A    between atoms: _274  and  _275
REMARK  106  A    between atoms: _274  and  _277
REMARK  107  A    between atoms: _277  and  _278
REMARK  108  A    between atoms: _278  and  _279
REMARK  109  A    between atoms: _279  and  _280
REMARK  110  A    between atoms: _280  and  _281
REMARK  111  A    between atoms: _285  and  _287
REMARK  112  A    between atoms: _287  and  _288
REMARK  113  A    between atoms: _287  and  _290
REMARK  114  A    between atoms: _290  and  _291
REMARK  115  A    between atoms: _294  and  _296
REMARK  116  A    between atoms: _296  and  _297
REMARK  117  A    between atoms: _296  and  _299
REMARK  118  A    between atoms: _299  and  _300
REMARK  119  A    between atoms: _303  and  _305
REMARK  120  A    between atoms: _305  and  _306
REMARK  121  A    between atoms: _305  and  _308
REMARK  122  A    between atoms: _308  and  _309
REMARK  123  A    between atoms: _312  and  _314
REMARK  124  A    between atoms: _314  and  _315
REMARK  125  A    between atoms: _314  and  _317
REMARK  126  A    between atoms: _320  and  _322
REMARK  127  A    between atoms: _322  and  _323
REMARK  128  A    between atoms: _322  and  _325
REMARK  129  A    between atoms: _325  and  _326
REMARK  130  A    between atoms: _326  and  _327
REMARK  131  A    between atoms: _329  and  _331
REMARK  132  A    between atoms: _331  and  _332
REMARK                            x       y       z     vdW  Elec       q    Type
REMARK                         _______ _______ _______ _____ _____    ______ ____
ROOT
ATOM      1  O   HOH     1      22.689  19.688 -12.827  0.00  0.00    +0.000 OA
ENDROOT
TORSDOF 0
REMARK  Name = ../refined-set-2016/4uyf/4uyf_pocket.pdb
REMARK  132 active torsions:
REMARK  status: ('A' for Active; 'I' for Inactive)
REMARK    1  A    between atoms: _1  and  _3
REMARK    2  A    between atoms: _3  and  _4
REMARK    3  A    between atoms: _3  and  _6
REMARK    4  A    between atoms: _6  and  _7
REMARK    5  A    between atoms: _13  and  _15
REMARK    6  A    between atoms: _15  and  _16
REMARK    7  A    between atoms: _19  and  _21
REMARK    8  A    between atoms: _21  and  _22
REMARK    9  A    between atoms: _21  and  _24
REMARK   10  A    between atoms: _24  and  _25
REMARK   11  A    between atoms: _36  and  _37
REMARK   12  A    between atoms: _42  and  _44
REMARK   13  A    between atoms: _44  and  _45
REMARK   14  A    between atoms: _44  and  _47
REMARK   15  A    between atoms: _47  and  _48
REMARK   16  A    between atoms: _54  and  _56
REMARK   17  A    between atoms: _56  and  _57
REMARK   18  A    between atoms: _56  and  _59
REMARK   19  A    between atoms: _59  and  _60
REMARK   20  A    between atoms: _60  and  _61
REMARK   21  A    between atoms: _61  and  _62
REMARK   22  A    between atoms: _71  and  _73
REMARK   23  A    between atoms: _73  and  _74
REMARK   24  A    between atoms: _73  and  _76
REMARK   25  A    between atoms: _76  and  _77
REMARK   26  A    between atoms: _77  and  _78
REMARK   27  A    between atoms: _84  and  _85
REMARK   28  A    between atoms: _90  and  _92
REMARK   29  A    between atoms: _92  and  _93
REMARK   30  A    between atoms: _92  and  _95
REMARK   31  A    between atoms: _98  and  _100
REMARK   32  A    between atoms: _100  and  _101
REMARK   33  A    between atoms: _100  and  _103
REMARK   34  A    between atoms: _103  and  _104
REMARK   35  A    between atoms: _107  and  _109
REMARK   36  A    between atoms: _109  and  _110
REMARK   37  A    between atoms: _113  and  _115
REMARK   38  A    between atoms: _115  and  _116
REMARK   39  A    between atoms: _115  and  _118
REMARK   40  A    between atoms: _118  and  _119
REMARK   41  A    between atoms: _119  and  _120
REMARK   42  A    between atoms: _120  and  _121
REMARK   43  A    between atoms: _121  and  _122
REMARK   44  A    between atoms: _126  and  _128
REMARK   45  A    between atoms: _128  and  _129
REMARK   46  A    between atoms: _128  and  _131
REMARK   47  A    between atoms: _131  and  _132
REMARK   48  A    between atoms: _135  and  _137
REMARK   49  A    between atoms: _137  and  _138
REMARK   50  A    between atoms: _137  and  _140
REMARK   51  A    between atoms: _140  and  _141
REMARK   52  A    between atoms: _144  and  _146
REMARK   53  A    between atoms: _146  and  _147
REMARK   54  A    between atoms: _146  and  _149
REMARK   55  A    between atoms: _149  and  _150
REMARK   56  A    between atoms: _155  and  _156
REMARK   57  A    between atoms: _158  and  _160
REMARK   58  A    between atoms: _160  and  _161
REMARK   59  A    between atoms: _160  and  _163
REMARK   60  A    between atoms: _163  and  _164
REMARK   61  A    between atoms: _167  and  _169
REMARK   62  A    between atoms: _169  and  _170
REMARK   63  A    between atoms: _169  and  _172
REMARK   64  A    between atoms: _172  and  _173
REMARK   65  A    between atoms: _173  and  _174
REMARK   66  A    between atoms: _176  and  _178
REMARK   67  A    between atoms: _178  and  _179
REMARK   68  A    between atoms: _178  and  _181
REMARK   69  A    between atoms: _181  and  _182
REMARK   70  A    between atoms: _185  and  _187
REMARK   71  A    between atoms: _187  and  _188
REMARK   72  A    between atoms: _187  and  _190
REMARK   73  A    between atoms: _190  and  _191
REMARK   74  A    between atoms: _191  and  _192
REMARK   75  A    between atoms: _194  and  _196
REMARK   76  A    between atoms: _196  and  _197
REMARK   77  A    between atoms: _196  and  _199
REMARK   78  A    between atoms: _199  and  _200
REMARK   79  A    between atoms: _206  and  _208
REMARK   80  A    between atoms: _208  and  _209
REMARK   81  A    between atoms: _208  and  _211
REMARK   82  A    between atoms: _211  and  _212
REMARK   83  A    between atoms: _217  and  _219
REMARK   84  A    between atoms: _219  and  _220
REMARK   85  A    between atoms: _219  and  _222
REMARK   86  A    between atoms: _224  and  _226
REMARK   87  A    between atoms: _226  and  _227
REMARK   88  A    between atoms: _226  and  _229
REMARK   89  A    between atoms: _229  and  _230
REMARK   90  A    between atoms: _235  and  _236
REMARK   91  A    between atoms: _238  and  _240
REMARK   92  A    between atoms: _240  and  _241
REMARK   93  A    between atoms: _240  and  _243
REMARK   94  A    between atoms: _243  and  _244
REMARK   95  A    between atoms: _247  and  _249
REMARK   96  A    between atoms: _249  and  _250
REMARK   97  A    between atoms: _249  and  _252
REMARK   98  A    between atoms: _252  and  _253
REMARK   99  A    between atoms: _258  and  _259
REMARK  100  A    between atoms: _261  and  _263
REMARK  101  A    between atoms: _263  and  _264
REMARK  102  A    between atoms: _263  and  _266
REMARK  103  A    between atoms: _266  and  _267
REMARK  104  A    between atoms: _272  and  _274
REMARK  105  A    between atoms: _274  and  _275
REMARK  106  A    between atoms: _274  and  _277
REMARK  107  A    between atoms: _277  and  _278
REMARK  108  A    between atoms: _278  and  _279
REMARK  109  A    between atoms: _279  and  _280
REMARK  110  A    between atoms: _280  and  _281
REMARK  111  A    between atoms: _285  and  _287
REMARK  112  A    between atoms: _287  and  _288
REMARK  113  A    between atoms: _287  and  _290
REMARK  114  A    between atoms: _290  and  _291
REMARK  115  A    between atoms: _294  and  _296
REMARK  116  A    between atoms: _296  and  _297
REMARK  117  A    between atoms: _296  and  _299
REMARK  118  A    between atoms: _299  and  _300
REMARK  119  A    between atoms: _303  and  _305
REMARK  120  A    between atoms: _305  and  _306
REMARK  121  A    between atoms: _305  and  _308
REMARK  122  A    between atoms: _308  and  _309
REMARK  123  A    between atoms: _312  and  _314
REMARK  124  A    between atoms: _314  and  _315
REMARK  125  A    between atoms: _314  and  _317
REMARK  126  A    between atoms: _320  and  _322
REMARK  127  A    between atoms: _322  and  _323
REMARK  128  A    between atoms: _322  and  _325
REMARK  129  A    between atoms: _325  and  _326
REMARK  130  A    between atoms: _326  and  _327
REMARK  131  A    between atoms: _329  and  _331
REMARK  132  A    between atoms: _331  and  _332
REMARK                            x       y       z     vdW  Elec       q    Type
REMARK                         _______ _______ _______ _____ _____    ______ ____
ROOT
ATOM      1  O   HOH     1       9.964  15.139 -14.609  0.00  0.00    +0.000 OA
ENDROOT
TORSDOF 0
REMARK  Name = ../refined-set-2016/4uyf/4uyf_pocket.pdb
REMARK  132 active torsions:
REMARK  status: ('A' for Active; 'I' for Inactive)
REMARK    1  A    between atoms: _1  and  _3
REMARK    2  A    between atoms: _3  and  _4
REMARK    3  A    between atoms: _3  and  _6
REMARK    4  A    between atoms: _6  and  _7
REMARK    5  A    between atoms: _13  and  _15
REMARK    6  A    between atoms: _15  and  _16
REMARK    7  A    between atoms: _19  and  _21
REMARK    8  A    between atoms: _21  and  _22
REMARK    9  A    between atoms: _21  and  _24
REMARK   10  A    between atoms: _24  and  _25
REMARK   11  A    between atoms: _36  and  _37
REMARK   12  A    between atoms: _42  and  _44
REMARK   13  A    between atoms: _44  and  _45
REMARK   14  A    between atoms: _44  and  _47
REMARK   15  A    between atoms: _47  and  _48
REMARK   16  A    between atoms: _54  and  _56
REMARK   17  A    between atoms: _56  and  _57
REMARK   18  A    between atoms: _56  and  _59
REMARK   19  A    between atoms: _59  and  _60
REMARK   20  A    between atoms: _60  and  _61
REMARK   21  A    between atoms: _61  and  _62
REMARK   22  A    between atoms: _71  and  _73
REMARK   23  A    between atoms: _73  and  _74
REMARK   24  A    between atoms: _73  and  _76
REMARK   25  A    between atoms: _76  and  _77
REMARK   26  A    between atoms: _77  and  _78
REMARK   27  A    between atoms: _84  and  _85
REMARK   28  A    between atoms: _90  and  _92
REMARK   29  A    between atoms: _92  and  _93
REMARK   30  A    between atoms: _92  and  _95
REMARK   31  A    between atoms: _98  and  _100
REMARK   32  A    between atoms: _100  and  _101
REMARK   33  A    between atoms: _100  and  _103
REMARK   34  A    between atoms: _103  and  _104
REMARK   35  A    between atoms: _107  and  _109
REMARK   36  A    between atoms: _109  and  _110
REMARK   37  A    between atoms: _113  and  _115
REMARK   38  A    between atoms: _115  and  _116
REMARK   39  A    between atoms: _115  and  _118
REMARK   40  A    between atoms: _118  and  _119
REMARK   41  A    between atoms: _119  and  _120
REMARK   42  A    between atoms: _120  and  _121
REMARK   43  A    between atoms: _121  and  _122
REMARK   44  A    between atoms: _126  and  _128
REMARK   45  A    between atoms: _128  and  _129
REMARK   46  A    between atoms: _128  and  _131
REMARK   47  A    between atoms: _131  and  _132
REMARK   48  A    between atoms: _135  and  _137
REMARK   49  A    between atoms: _137  and  _138
REMARK   50  A    between atoms: _137  and  _140
REMARK   51  A    between atoms: _140  and  _141
REMARK   52  A    between atoms: _144  and  _146
REMARK   53  A    between atoms: _146  and  _147
REMARK   54  A    between atoms: _146  and  _149
REMARK   55  A    between atoms: _149  and  _150
REMARK   56  A    between atoms: _155  and  _156
REMARK   57  A    between atoms: _158  and  _160
REMARK   58  A    between atoms: _160  and  _161
REMARK   59  A    between atoms: _160  and  _163
REMARK   60  A    between atoms: _163  and  _164
REMARK   61  A    between atoms: _167  and  _169
REMARK   62  A    between atoms: _169  and  _170
REMARK   63  A    between atoms: _169  and  _172
REMARK   64  A    between atoms: _172  and  _173
REMARK   65  A    between atoms: _173  and  _174
REMARK   66  A    between atoms: _176  and  _178
REMARK   67  A    between atoms: _178  and  _179
REMARK   68  A    between atoms: _178  and  _181
REMARK   69  A    between atoms: _181  and  _182
REMARK   70  A    between atoms: _185  and  _187
REMARK   71  A    between atoms: _187  and  _188
REMARK   72  A    between atoms: _187  and  _190
REMARK   73  A    between atoms: _190  and  _191
REMARK   74  A    between atoms: _191  and  _192
REMARK   75  A    between atoms: _194  and  _196
REMARK   76  A    between atoms: _196  and  _197
REMARK   77  A    between atoms: _196  and  _199
REMARK   78  A    between atoms: _199  and  _200
REMARK   79  A    between atoms: _206  and  _208
REMARK   80  A    between atoms: _208  and  _209
REMARK   81  A    between atoms: _208  and  _211
REMARK   82  A    between atoms: _211  and  _212
REMARK   83  A    between atoms: _217  and  _219
REMARK   84  A    between atoms: _219  and  _220
REMARK   85  A    between atoms: _219  and  _222
REMARK   86  A    between atoms: _224  and  _226
REMARK   87  A    between atoms: _226  and  _227
REMARK   88  A    between atoms: _226  and  _229
REMARK   89  A    between atoms: _229  and  _230
REMARK   90  A    between atoms: _235  and  _236
REMARK   91  A    between atoms: _238  and  _240
REMARK   92  A    between atoms: _240  and  _241
REMARK   93  A    between atoms: _240  and  _243
REMARK   94  A    between atoms: _243  and  _244
REMARK   95  A    between atoms: _247  and  _249
REMARK   96  A    between atoms: _249  and  _250
REMARK   97  A    between atoms: _249  and  _252
REMARK   98  A    between atoms: _252  and  _253
REMARK   99  A    between atoms: _258  and  _259
REMARK  100  A    between atoms: _261  and  _263
REMARK  101  A    between atoms: _263  and  _264
REMARK  102  A    between atoms: _263  and  _266
REMARK  103  A    between atoms: _266  and  _267
REMARK  104  A    between atoms: _272  and  _274
REMARK  105  A    between atoms: _274  and  _275
REMARK  106  A    between atoms: _274  and  _277
REMARK  107  A    between atoms: _277  and  _278
REMARK  108  A    between atoms: _278  and  _279
REMARK  109  A    between atoms: _279  and  _280
REMARK  110  A    between atoms: _280  and  _281
REMARK  111  A    between atoms: _285  and  _287
REMARK  112  A    between atoms: _287  and  _288
REMARK  113  A    between atoms: _287  and  _290
REMARK  114  A    between atoms: _290  and  _291
REMARK  115  A    between atoms: _294  and  _296
REMARK  116  A    between atoms: _296  and  _297
REMARK  117  A    between atoms: _296  and  _299
REMARK  118  A    between atoms: _299  and  _300
REMARK  119  A    between atoms: _303  and  _305
REMARK  120  A    between atoms: _305  and  _306
REMARK  121  A    between atoms: _305  and  _308
REMARK  122  A    between atoms: _308  and  _309
REMARK  123  A    between atoms: _312  and  _314
REMARK  124  A    between atoms: _314  and  _315
REMARK  125  A    between atoms: _314  and  _317
REMARK  126  A    between atoms: _320  and  _322
REMARK  127  A    between atoms: _322  and  _323
REMARK  128  A    between atoms: _322  and  _325
REMARK  129  A    between atoms: _325  and  _326
REMARK  130  A    between atoms: _326  and  _327
REMARK  131  A    between atoms: _329  and  _331
REMARK  132  A    between atoms: _331  and  _332
REMARK                            x       y       z     vdW  Elec       q    Type
REMARK                         _______ _______ _______ _____ _____    ______ ____
ROOT
ATOM      1  O   HOH     1      13.774  15.394 -15.535  0.00  0.00    +0.000 OA
ENDROOT
TORSDOF 0
REMARK  Name = ../refined-set-2016/4uyf/4uyf_pocket.pdb
REMARK  132 active torsions:
REMARK  status: ('A' for Active; 'I' for Inactive)
REMARK    1  A    between atoms: _1  and  _3
REMARK    2  A    between atoms: _3  and  _4
REMARK    3  A    between atoms: _3  and  _6
REMARK    4  A    between atoms: _6  and  _7
REMARK    5  A    between atoms: _13  and  _15
REMARK    6  A    between atoms: _15  and  _16
REMARK    7  A    between atoms: _19  and  _21
REMARK    8  A    between atoms: _21  and  _22
REMARK    9  A    between atoms: _21  and  _24
REMARK   10  A    between atoms: _24  and  _25
REMARK   11  A    between atoms: _36  and  _37
REMARK   12  A    between atoms: _42  and  _44
REMARK   13  A    between atoms: _44  and  _45
REMARK   14  A    between atoms: _44  and  _47
REMARK   15  A    between atoms: _47  and  _48
REMARK   16  A    between atoms: _54  and  _56
REMARK   17  A    between atoms: _56  and  _57
REMARK   18  A    between atoms: _56  and  _59
REMARK   19  A    between atoms: _59  and  _60
REMARK   20  A    between atoms: _60  and  _61
REMARK   21  A    between atoms: _61  and  _62
REMARK   22  A    between atoms: _71  and  _73
REMARK   23  A    between atoms: _73  and  _74
REMARK   24  A    between atoms: _73  and  _76
REMARK   25  A    between atoms: _76  and  _77
REMARK   26  A    between atoms: _77  and  _78
REMARK   27  A    between atoms: _84  and  _85
REMARK   28  A    between atoms: _90  and  _92
REMARK   29  A    between atoms: _92  and  _93
REMARK   30  A    between atoms: _92  and  _95
REMARK   31  A    between atoms: _98  and  _100
REMARK   32  A    between atoms: _100  and  _101
REMARK   33  A    between atoms: _100  and  _103
REMARK   34  A    between atoms: _103  and  _104
REMARK   35  A    between atoms: _107  and  _109
REMARK   36  A    between atoms: _109  and  _110
REMARK   37  A    between atoms: _113  and  _115
REMARK   38  A    between atoms: _115  and  _116
REMARK   39  A    between atoms: _115  and  _118
REMARK   40  A    between atoms: _118  and  _119
REMARK   41  A    between atoms: _119  and  _120
REMARK   42  A    between atoms: _120  and  _121
REMARK   43  A    between atoms: _121  and  _122
REMARK   44  A    between atoms: _126  and  _128
REMARK   45  A    between atoms: _128  and  _129
REMARK   46  A    between atoms: _128  and  _131
REMARK   47  A    between atoms: _131  and  _132
REMARK   48  A    between atoms: _135  and  _137
REMARK   49  A    between atoms: _137  and  _138
REMARK   50  A    between atoms: _137  and  _140
REMARK   51  A    between atoms: _140  and  _141
REMARK   52  A    between atoms: _144  and  _146
REMARK   53  A    between atoms: _146  and  _147
REMARK   54  A    between atoms: _146  and  _149
REMARK   55  A    between atoms: _149  and  _150
REMARK   56  A    between atoms: _155  and  _156
REMARK   57  A    between atoms: _158  and  _160
REMARK   58  A    between atoms: _160  and  _161
REMARK   59  A    between atoms: _160  and  _163
REMARK   60  A    between atoms: _163  and  _164
REMARK   61  A    between atoms: _167  and  _169
REMARK   62  A    between atoms: _169  and  _170
REMARK   63  A    between atoms: _169  and  _172
REMARK   64  A    between atoms: _172  and  _173
REMARK   65  A    between atoms: _173  and  _174
REMARK   66  A    between atoms: _176  and  _178
REMARK   67  A    between atoms: _178  and  _179
REMARK   68  A    between atoms: _178  and  _181
REMARK   69  A    between atoms: _181  and  _182
REMARK   70  A    between atoms: _185  and  _187
REMARK   71  A    between atoms: _187  and  _188
REMARK   72  A    between atoms: _187  and  _190
REMARK   73  A    between atoms: _190  and  _191
REMARK   74  A    between atoms: _191  and  _192
REMARK   75  A    between atoms: _194  and  _196
REMARK   76  A    between atoms: _196  and  _197
REMARK   77  A    between atoms: _196  and  _199
REMARK   78  A    between atoms: _199  and  _200
REMARK   79  A    between atoms: _206  and  _208
REMARK   80  A    between atoms: _208  and  _209
REMARK   81  A    between atoms: _208  and  _211
REMARK   82  A    between atoms: _211  and  _212
REMARK   83  A    between atoms: _217  and  _219
REMARK   84  A    between atoms: _219  and  _220
REMARK   85  A    between atoms: _219  and  _222
REMARK   86  A    between atoms: _224  and  _226
REMARK   87  A    between atoms: _226  and  _227
REMARK   88  A    between atoms: _226  and  _229
REMARK   89  A    between atoms: _229  and  _230
REMARK   90  A    between atoms: _235  and  _236
REMARK   91  A    between atoms: _238  and  _240
REMARK   92  A    between atoms: _240  and  _241
REMARK   93  A    between atoms: _240  and  _243
REMARK   94  A    between atoms: _243  and  _244
REMARK   95  A    between atoms: _247  and  _249
REMARK   96  A    between atoms: _249  and  _250
REMARK   97  A    between atoms: _249  and  _252
REMARK   98  A    between atoms: _252  and  _253
REMARK   99  A    between atoms: _258  and  _259
REMARK  100  A    between atoms: _261  and  _263
REMARK  101  A    between atoms: _263  and  _264
REMARK  102  A    between atoms: _263  and  _266
REMARK  103  A    between atoms: _266  and  _267
REMARK  104  A    between atoms: _272  and  _274
REMARK  105  A    between atoms: _274  and  _275
REMARK  106  A    between atoms: _274  and  _277
REMARK  107  A    between atoms: _277  and  _278
REMARK  108  A    between atoms: _278  and  _279
REMARK  109  A    between atoms: _279  and  _280
REMARK  110  A    between atoms: _280  and  _281
REMARK  111  A    between atoms: _285  and  _287
REMARK  112  A    between atoms: _287  and  _288
REMARK  113  A    between atoms: _287  and  _290
REMARK  114  A    between atoms: _290  and  _291
REMARK  115  A    between atoms: _294  and  _296
REMARK  116  A    between atoms: _296  and  _297
REMARK  117  A    between atoms: _296  and  _299
REMARK  118  A    between atoms: _299  and  _300
REMARK  119  A    between atoms: _303  and  _305
REMARK  120  A    between atoms: _305  and  _306
REMARK  121  A    between atoms: _305  and  _308
REMARK  122  A    between atoms: _308  and  _309
REMARK  123  A    between atoms: _312  and  _314
REMARK  124  A    between atoms: _314  and  _315
REMARK  125  A    between atoms: _314  and  _317
REMARK  126  A    between atoms: _320  and  _322
REMARK  127  A    between atoms: _322  and  _323
REMARK  128  A    between atoms: _322  and  _325
REMARK  129  A    between atoms: _325  and  _326
REMARK  130  A    between atoms: _326  and  _327
REMARK  131  A    between atoms: _329  and  _331
REMARK  132  A    between atoms: _331  and  _332
REMARK                            x       y       z     vdW  Elec       q    Type
REMARK                         _______ _______ _______ _____ _____    ______ ____
ROOT
ATOM      1  O   HOH     1      21.878  11.455 -14.736  0.00  0.00    +0.000 OA
ENDROOT
TORSDOF 0
