REMARK  Name = ../refined-set-2016/1xd0/1xd0_pocket.pdb
REMARK  251 active torsions:
REMARK  status: ('A' for Active; 'I' for Inactive)
REMARK    1  A    between atoms: _1  and  _3
REMARK    2  A    between atoms: _3  and  _4
REMARK    3  A    between atoms: _3  and  _6
REMARK    4  A    between atoms: _6  and  _7
REMARK    5  A    between atoms: _13  and  _15
REMARK    6  A    between atoms: _15  and  _16
REMARK    7  A    between atoms: _15  and  _18
REMARK    8  A    between atoms: _18  and  _19
REMARK    9  A    between atoms: _19  and  _20
REMARK   10  A    between atoms: _26  and  _27
REMARK   11  A    between atoms: _32  and  _34
REMARK   12  A    between atoms: _34  and  _35
REMARK   13  A    between atoms: _34  and  _37
REMARK   14  A    between atoms: _37  and  _38
REMARK   15  A    between atoms: _43  and  _45
REMARK   16  A    between atoms: _45  and  _46
REMARK   17  A    between atoms: _45  and  _48
REMARK   18  A    between atoms: _51  and  _53
REMARK   19  A    between atoms: _53  and  _54
REMARK   20  A    between atoms: _53  and  _56
REMARK   21  A    between atoms: _56  and  _57
REMARK   22  A    between atoms: _61  and  _62
REMARK   23  A    between atoms: _68  and  _69
REMARK   24  A    between atoms: _74  and  _76
REMARK   25  A    between atoms: _76  and  _77
REMARK   26  A    between atoms: _76  and  _79
REMARK   27  A    between atoms: _79  and  _80
REMARK   28  A    between atoms: _90  and  _92
REMARK   29  A    between atoms: _92  and  _93
REMARK   30  A    between atoms: _92  and  _95
REMARK   31  A    between atoms: _95  and  _96
REMARK   32  A    between atoms: _106  and  _108
REMARK   33  A    between atoms: _108  and  _109
REMARK   34  A    between atoms: _108  and  _111
REMARK   35  A    between atoms: _111  and  _112
REMARK   36  A    between atoms: _112  and  _113
REMARK   37  A    between atoms: _116  and  _118
REMARK   38  A    between atoms: _118  and  _119
REMARK   39  A    between atoms: _118  and  _121
REMARK   40  A    between atoms: _121  and  _122
REMARK   41  A    between atoms: _122  and  _123
REMARK   42  A    between atoms: _123  and  _124
REMARK   43  A    between atoms: _133  and  _135
REMARK   44  A    between atoms: _135  and  _136
REMARK   45  A    between atoms: _135  and  _138
REMARK   46  A    between atoms: _138  and  _139
REMARK   47  A    between atoms: _144  and  _145
REMARK   48  A    between atoms: _147  and  _149
REMARK   49  A    between atoms: _149  and  _150
REMARK   50  A    between atoms: _149  and  _152
REMARK   51  A    between atoms: _152  and  _153
REMARK   52  A    between atoms: _153  and  _154
REMARK   53  A    between atoms: _160  and  _161
REMARK   54  A    between atoms: _166  and  _168
REMARK   55  A    between atoms: _168  and  _169
REMARK   56  A    between atoms: _168  and  _171
REMARK   57  A    between atoms: _171  and  _172
REMARK   58  A    between atoms: _175  and  _177
REMARK   59  A    between atoms: _177  and  _178
REMARK   60  A    between atoms: _181  and  _183
REMARK   61  A    between atoms: _183  and  _184
REMARK   62  A    between atoms: _183  and  _186
REMARK   63  A    between atoms: _189  and  _191
REMARK   64  A    between atoms: _191  and  _192
REMARK   65  A    between atoms: _191  and  _194
REMARK   66  A    between atoms: _194  and  _195
REMARK   67  A    between atoms: _198  and  _200
REMARK   68  A    between atoms: _200  and  _201
REMARK   69  A    between atoms: _200  and  _203
REMARK   70  A    between atoms: _203  and  _204
REMARK   71  A    between atoms: _209  and  _211
REMARK   72  A    between atoms: _211  and  _212
REMARK   73  A    between atoms: _211  and  _214
REMARK   74  A    between atoms: _214  and  _215
REMARK   75  A    between atoms: _220  and  _222
REMARK   76  A    between atoms: _222  and  _223
REMARK   77  A    between atoms: _222  and  _225
REMARK   78  A    between atoms: _225  and  _226
REMARK   79  A    between atoms: _226  and  _227
REMARK   80  A    between atoms: _229  and  _231
REMARK   81  A    between atoms: _231  and  _232
REMARK   82  A    between atoms: _231  and  _234
REMARK   83  A    between atoms: _236  and  _238
REMARK   84  A    between atoms: _238  and  _239
REMARK   85  A    between atoms: _241  and  _243
REMARK   86  A    between atoms: _243  and  _244
REMARK   87  A    between atoms: _243  and  _246
REMARK   88  A    between atoms: _246  and  _247
REMARK   89  A    between atoms: _252  and  _254
REMARK   90  A    between atoms: _254  and  _255
REMARK   91  A    between atoms: _258  and  _260
REMARK   92  A    between atoms: _260  and  _261
REMARK   93  A    between atoms: _260  and  _263
REMARK   94  A    between atoms: _266  and  _268
REMARK   95  A    between atoms: _268  and  _269
REMARK   96  A    between atoms: _268  and  _271
REMARK   97  A    between atoms: _271  and  _272
REMARK   98  A    between atoms: _275  and  _277
REMARK   99  A    between atoms: _277  and  _278
REMARK  100  A    between atoms: _277  and  _280
REMARK  101  A    between atoms: _280  and  _281
REMARK  102  A    between atoms: _284  and  _286
REMARK  103  A    between atoms: _286  and  _287
REMARK  104  A    between atoms: _286  and  _289
REMARK  105  A    between atoms: _289  and  _290
REMARK  106  A    between atoms: _295  and  _296
REMARK  107  A    between atoms: _298  and  _300
REMARK  108  A    between atoms: _300  and  _301
REMARK  109  A    between atoms: _300  and  _303
REMARK  110  A    between atoms: _306  and  _308
REMARK  111  A    between atoms: _308  and  _309
REMARK  112  A    between atoms: _308  and  _311
REMARK  113  A    between atoms: _311  and  _312
REMARK  114  A    between atoms: _312  and  _313
REMARK  115  A    between atoms: _313  and  _314
REMARK  116  A    between atoms: _323  and  _325
REMARK  117  A    between atoms: _325  and  _326
REMARK  118  A    between atoms: _325  and  _328
REMARK  119  A    between atoms: _328  and  _329
REMARK  120  A    between atoms: _332  and  _334
REMARK  121  A    between atoms: _334  and  _335
REMARK  122  A    between atoms: _334  and  _337
REMARK  123  A    between atoms: _337  and  _338
REMARK  124  A    between atoms: _341  and  _343
REMARK  125  A    between atoms: _343  and  _344
REMARK  126  A    between atoms: _346  and  _348
REMARK  127  A    between atoms: _348  and  _349
REMARK  128  A    between atoms: _348  and  _351
REMARK  129  A    between atoms: _351  and  _352
REMARK  130  A    between atoms: _355  and  _357
REMARK  131  A    between atoms: _357  and  _358
REMARK  132  A    between atoms: _357  and  _360
REMARK  133  A    between atoms: _360  and  _361
REMARK  134  A    between atoms: _364  and  _366
REMARK  135  A    between atoms: _366  and  _367
REMARK  136  A    between atoms: _366  and  _369
REMARK  137  A    between atoms: _369  and  _370
REMARK  138  A    between atoms: _370  and  _371
REMARK  139  A    between atoms: _371  and  _372
REMARK  140  A    between atoms: _381  and  _383
REMARK  141  A    between atoms: _383  and  _384
REMARK  142  A    between atoms: _383  and  _386
REMARK  143  A    between atoms: _386  and  _387
REMARK  144  A    between atoms: _390  and  _392
REMARK  145  A    between atoms: _392  and  _393
REMARK  146  A    between atoms: _392  and  _395
REMARK  147  A    between atoms: _395  and  _396
REMARK  148  A    between atoms: _399  and  _401
REMARK  149  A    between atoms: _401  and  _402
REMARK  150  A    between atoms: _405  and  _407
REMARK  151  A    between atoms: _407  and  _408
REMARK  152  A    between atoms: _407  and  _410
REMARK  153  A    between atoms: _410  and  _411
REMARK  154  A    between atoms: _413  and  _415
REMARK  155  A    between atoms: _415  and  _416
REMARK  156  A    between atoms: _415  and  _418
REMARK  157  A    between atoms: _418  and  _419
REMARK  158  A    between atoms: _419  and  _420
REMARK  159  A    between atoms: _420  and  _421
REMARK  160  A    between atoms: _421  and  _422
REMARK  161  A    between atoms: _426  and  _428
REMARK  162  A    between atoms: _428  and  _429
REMARK  163  A    between atoms: _428  and  _431
REMARK  164  A    between atoms: _431  and  _432
REMARK  165  A    between atoms: _437  and  _439
REMARK  166  A    between atoms: _439  and  _440
REMARK  167  A    between atoms: _439  and  _442
REMARK  168  A    between atoms: _442  and  _443
REMARK  169  A    between atoms: _443  and  _444
REMARK  170  A    between atoms: _447  and  _449
REMARK  171  A    between atoms: _449  and  _450
REMARK  172  A    between atoms: _449  and  _452
REMARK  173  A    between atoms: _455  and  _457
REMARK  174  A    between atoms: _457  and  _458
REMARK  175  A    between atoms: _457  and  _460
REMARK  176  A    between atoms: _460  and  _461
REMARK  177  A    between atoms: _464  and  _466
REMARK  178  A    between atoms: _466  and  _467
REMARK  179  A    between atoms: _466  and  _469
REMARK  180  A    between atoms: _469  and  _470
REMARK  181  A    between atoms: _473  and  _475
REMARK  182  A    between atoms: _475  and  _476
REMARK  183  A    between atoms: _475  and  _478
REMARK  184  A    between atoms: _478  and  _479
REMARK  185  A    between atoms: _482  and  _484
REMARK  186  A    between atoms: _484  and  _485
REMARK  187  A    between atoms: _487  and  _489
REMARK  188  A    between atoms: _489  and  _490
REMARK  189  A    between atoms: _492  and  _494
REMARK  190  A    between atoms: _494  and  _495
REMARK  191  A    between atoms: _494  and  _497
REMARK  192  A    between atoms: _497  and  _498
REMARK  193  A    between atoms: _498  and  _499
REMARK  194  A    between atoms: _502  and  _504
REMARK  195  A    between atoms: _504  and  _505
REMARK  196  A    between atoms: _504  and  _507
REMARK  197  A    between atoms: _507  and  _508
REMARK  198  A    between atoms: _511  and  _513
REMARK  199  A    between atoms: _513  and  _514
REMARK  200  A    between atoms: _513  and  _516
REMARK  201  A    between atoms: _516  and  _517
REMARK  202  A    between atoms: _523  and  _525
REMARK  203  A    between atoms: _525  and  _526
REMARK  204  A    between atoms: _525  and  _528
REMARK  205  A    between atoms: _528  and  _529
REMARK  206  A    between atoms: _534  and  _536
REMARK  207  A    between atoms: _536  and  _537
REMARK  208  A    between atoms: _536  and  _539
REMARK  209  A    between atoms: _539  and  _540
REMARK  210  A    between atoms: _545  and  _547
REMARK  211  A    between atoms: _547  and  _548
REMARK  212  A    between atoms: _547  and  _550
REMARK  213  A    between atoms: _550  and  _551
REMARK  214  A    between atoms: _554  and  _556
REMARK  215  A    between atoms: _556  and  _557
REMARK  216  A    between atoms: _556  and  _559
REMARK  217  A    between atoms: _559  and  _560
REMARK  218  A    between atoms: _565  and  _567
REMARK  219  A    between atoms: _567  and  _568
REMARK  220  A    between atoms: _567  and  _570
REMARK  221  A    between atoms: _570  and  _571
REMARK  222  A    between atoms: _571  and  _572
REMARK  223  A    between atoms: _572  and  _573
REMARK  224  A    between atoms: _582  and  _584
REMARK  225  A    between atoms: _584  and  _585
REMARK  226  A    between atoms: _587  and  _589
REMARK  227  A    between atoms: _589  and  _590
REMARK  228  A    between atoms: _589  and  _592
REMARK  229  A    between atoms: _592  and  _593
REMARK  230  A    between atoms: _598  and  _600
REMARK  231  A    between atoms: _600  and  _601
REMARK  232  A    between atoms: _603  and  _605
REMARK  233  A    between atoms: _605  and  _606
REMARK  234  A    between atoms: _609  and  _611
REMARK  235  A    between atoms: _611  and  _612
REMARK  236  A    between atoms: _614  and  _616
REMARK  237  A    between atoms: _616  and  _617
REMARK  238  A    between atoms: _619  and  _621
REMARK  239  A    between atoms: _621  and  _622
REMARK  240  A    between atoms: _621  and  _624
REMARK  241  A    between atoms: _624  and  _625
REMARK  242  A    between atoms: _625  and  _626
REMARK  243  A    between atoms: _626  and  _627
REMARK  244  A    between atoms: _636  and  _638
REMARK  245  A    between atoms: _638  and  _639
REMARK  246  A    between atoms: _638  and  _641
REMARK  247  A    between atoms: _641  and  _642
REMARK  248  A    between atoms: _645  and  _647
REMARK  249  A    between atoms: _647  and  _648
REMARK  250  A    between atoms: _647  and  _650
REMARK  251  A    between atoms: _650  and  _651
REMARK                            x       y       z     vdW  Elec       q    Type
REMARK                         _______ _______ _______ _____ _____    ______ ____
ROOT
ATOM      1  CB  PHE A   1      15.345  29.787  45.537  0.00  0.00    +0.051 C 
ENDROOT
BRANCH   1   2
ATOM      2  CG  PHE A   1      15.476  28.722  44.487  0.00  0.00    -0.020 A 
ATOM      3  CD2 PHE A   1      15.688  27.366  44.834  0.00  0.00    -0.004 A 
ATOM      4  CE2 PHE A   1      15.778  26.367  43.833  0.00  0.00    -0.000 A 
ATOM      5  CZ  PHE A   1      15.635  26.727  42.469  0.00  0.00    -0.000 A 
ATOM      6  CE1 PHE A   1      15.420  28.079  42.115  0.00  0.00    -0.000 A 
ATOM      7  CD1 PHE A   1      15.336  29.072  43.131  0.00  0.00    -0.004 A 
ENDBRANCH   1   2
BRANCH   1   8
ATOM      8  CA  PHE A   1      16.441  29.773  46.611  0.00  0.00    +0.137 C 
BRANCH   8   9
ATOM      9  N   PHE A   1      16.107  30.798  47.585  0.00  0.00    -0.239 NA
ATOM     10  H   PHE A   1      15.214  31.313  47.451  0.00  0.00    +0.142 HD
ENDBRANCH   8   9
BRANCH   8  11
ATOM     11  C   PHE A   1      17.826  29.918  46.000  0.00  0.00    +0.224 C 
ATOM     12  O   PHE A   1      18.104  30.913  45.322  0.00  0.00    -0.287 OA
ENDBRANCH   8  11
ENDBRANCH   1   8
TORSDOF 4
REMARK  Name = ../refined-set-2016/1xd0/1xd0_pocket.pdb
REMARK  251 active torsions:
REMARK  status: ('A' for Active; 'I' for Inactive)
REMARK    1  A    between atoms: _1  and  _3
REMARK    2  A    between atoms: _3  and  _4
REMARK    3  A    between atoms: _3  and  _6
REMARK    4  A    between atoms: _6  and  _7
REMARK    5  A    between atoms: _13  and  _15
REMARK    6  A    between atoms: _15  and  _16
REMARK    7  A    between atoms: _15  and  _18
REMARK    8  A    between atoms: _18  and  _19
REMARK    9  A    between atoms: _19  and  _20
REMARK   10  A    between atoms: _26  and  _27
REMARK   11  A    between atoms: _32  and  _34
REMARK   12  A    between atoms: _34  and  _35
REMARK   13  A    between atoms: _34  and  _37
REMARK   14  A    between atoms: _37  and  _38
REMARK   15  A    between atoms: _43  and  _45
REMARK   16  A    between atoms: _45  and  _46
REMARK   17  A    between atoms: _45  and  _48
REMARK   18  A    between atoms: _51  and  _53
REMARK   19  A    between atoms: _53  and  _54
REMARK   20  A    between atoms: _53  and  _56
REMARK   21  A    between atoms: _56  and  _57
REMARK   22  A    between atoms: _61  and  _62
REMARK   23  A    between atoms: _68  and  _69
REMARK   24  A    between atoms: _74  and  _76
REMARK   25  A    between atoms: _76  and  _77
REMARK   26  A    between atoms: _76  and  _79
REMARK   27  A    between atoms: _79  and  _80
REMARK   28  A    between atoms: _90  and  _92
REMARK   29  A    between atoms: _92  and  _93
REMARK   30  A    between atoms: _92  and  _95
REMARK   31  A    between atoms: _95  and  _96
REMARK   32  A    between atoms: _106  and  _108
REMARK   33  A    between atoms: _108  and  _109
REMARK   34  A    between atoms: _108  and  _111
REMARK   35  A    between atoms: _111  and  _112
REMARK   36  A    between atoms: _112  and  _113
REMARK   37  A    between atoms: _116  and  _118
REMARK   38  A    between atoms: _118  and  _119
REMARK   39  A    between atoms: _118  and  _121
REMARK   40  A    between atoms: _121  and  _122
REMARK   41  A    between atoms: _122  and  _123
REMARK   42  A    between atoms: _123  and  _124
REMARK   43  A    between atoms: _133  and  _135
REMARK   44  A    between atoms: _135  and  _136
REMARK   45  A    between atoms: _135  and  _138
REMARK   46  A    between atoms: _138  and  _139
REMARK   47  A    between atoms: _144  and  _145
REMARK   48  A    between atoms: _147  and  _149
REMARK   49  A    between atoms: _149  and  _150
REMARK   50  A    between atoms: _149  and  _152
REMARK   51  A    between atoms: _152  and  _153
REMARK   52  A    between atoms: _153  and  _154
REMARK   53  A    between atoms: _160  and  _161
REMARK   54  A    between atoms: _166  and  _168
REMARK   55  A    between atoms: _168  and  _169
REMARK   56  A    between atoms: _168  and  _171
REMARK   57  A    between atoms: _171  and  _172
REMARK   58  A    between atoms: _175  and  _177
REMARK   59  A    between atoms: _177  and  _178
REMARK   60  A    between atoms: _181  and  _183
REMARK   61  A    between atoms: _183  and  _184
REMARK   62  A    between atoms: _183  and  _186
REMARK   63  A    between atoms: _189  and  _191
REMARK   64  A    between atoms: _191  and  _192
REMARK   65  A    between atoms: _191  and  _194
REMARK   66  A    between atoms: _194  and  _195
REMARK   67  A    between atoms: _198  and  _200
REMARK   68  A    between atoms: _200  and  _201
REMARK   69  A    between atoms: _200  and  _203
REMARK   70  A    between atoms: _203  and  _204
REMARK   71  A    between atoms: _209  and  _211
REMARK   72  A    between atoms: _211  and  _212
REMARK   73  A    between atoms: _211  and  _214
REMARK   74  A    between atoms: _214  and  _215
REMARK   75  A    between atoms: _220  and  _222
REMARK   76  A    between atoms: _222  and  _223
REMARK   77  A    between atoms: _222  and  _225
REMARK   78  A    between atoms: _225  and  _226
REMARK   79  A    between atoms: _226  and  _227
REMARK   80  A    between atoms: _229  and  _231
REMARK   81  A    between atoms: _231  and  _232
REMARK   82  A    between atoms: _231  and  _234
REMARK   83  A    between atoms: _236  and  _238
REMARK   84  A    between atoms: _238  and  _239
REMARK   85  A    between atoms: _241  and  _243
REMARK   86  A    between atoms: _243  and  _244
REMARK   87  A    between atoms: _243  and  _246
REMARK   88  A    between atoms: _246  and  _247
REMARK   89  A    between atoms: _252  and  _254
REMARK   90  A    between atoms: _254  and  _255
REMARK   91  A    between atoms: _258  and  _260
REMARK   92  A    between atoms: _260  and  _261
REMARK   93  A    between atoms: _260  and  _263
REMARK   94  A    between atoms: _266  and  _268
REMARK   95  A    between atoms: _268  and  _269
REMARK   96  A    between atoms: _268  and  _271
REMARK   97  A    between atoms: _271  and  _272
REMARK   98  A    between atoms: _275  and  _277
REMARK   99  A    between atoms: _277  and  _278
REMARK  100  A    between atoms: _277  and  _280
REMARK  101  A    between atoms: _280  and  _281
REMARK  102  A    between atoms: _284  and  _286
REMARK  103  A    between atoms: _286  and  _287
REMARK  104  A    between atoms: _286  and  _289
REMARK  105  A    between atoms: _289  and  _290
REMARK  106  A    between atoms: _295  and  _296
REMARK  107  A    between atoms: _298  and  _300
REMARK  108  A    between atoms: _300  and  _301
REMARK  109  A    between atoms: _300  and  _303
REMARK  110  A    between atoms: _306  and  _308
REMARK  111  A    between atoms: _308  and  _309
REMARK  112  A    between atoms: _308  and  _311
REMARK  113  A    between atoms: _311  and  _312
REMARK  114  A    between atoms: _312  and  _313
REMARK  115  A    between atoms: _313  and  _314
REMARK  116  A    between atoms: _323  and  _325
REMARK  117  A    between atoms: _325  and  _326
REMARK  118  A    between atoms: _325  and  _328
REMARK  119  A    between atoms: _328  and  _329
REMARK  120  A    between atoms: _332  and  _334
REMARK  121  A    between atoms: _334  and  _335
REMARK  122  A    between atoms: _334  and  _337
REMARK  123  A    between atoms: _337  and  _338
REMARK  124  A    between atoms: _341  and  _343
REMARK  125  A    between atoms: _343  and  _344
REMARK  126  A    between atoms: _346  and  _348
REMARK  127  A    between atoms: _348  and  _349
REMARK  128  A    between atoms: _348  and  _351
REMARK  129  A    between atoms: _351  and  _352
REMARK  130  A    between atoms: _355  and  _357
REMARK  131  A    between atoms: _357  and  _358
REMARK  132  A    between atoms: _357  and  _360
REMARK  133  A    between atoms: _360  and  _361
REMARK  134  A    between atoms: _364  and  _366
REMARK  135  A    between atoms: _366  and  _367
REMARK  136  A    between atoms: _366  and  _369
REMARK  137  A    between atoms: _369  and  _370
REMARK  138  A    between atoms: _370  and  _371
REMARK  139  A    between atoms: _371  and  _372
REMARK  140  A    between atoms: _381  and  _383
REMARK  141  A    between atoms: _383  and  _384
REMARK  142  A    between atoms: _383  and  _386
REMARK  143  A    between atoms: _386  and  _387
REMARK  144  A    between atoms: _390  and  _392
REMARK  145  A    between atoms: _392  and  _393
REMARK  146  A    between atoms: _392  and  _395
REMARK  147  A    between atoms: _395  and  _396
REMARK  148  A    between atoms: _399  and  _401
REMARK  149  A    between atoms: _401  and  _402
REMARK  150  A    between atoms: _405  and  _407
REMARK  151  A    between atoms: _407  and  _408
REMARK  152  A    between atoms: _407  and  _410
REMARK  153  A    between atoms: _410  and  _411
REMARK  154  A    between atoms: _413  and  _415
REMARK  155  A    between atoms: _415  and  _416
REMARK  156  A    between atoms: _415  and  _418
REMARK  157  A    between atoms: _418  and  _419
REMARK  158  A    between atoms: _419  and  _420
REMARK  159  A    between atoms: _420  and  _421
REMARK  160  A    between atoms: _421  and  _422
REMARK  161  A    between atoms: _426  and  _428
REMARK  162  A    between atoms: _428  and  _429
REMARK  163  A    between atoms: _428  and  _431
REMARK  164  A    between atoms: _431  and  _432
REMARK  165  A    between atoms: _437  and  _439
REMARK  166  A    between atoms: _439  and  _440
REMARK  167  A    between atoms: _439  and  _442
REMARK  168  A    between atoms: _442  and  _443
REMARK  169  A    between atoms: _443  and  _444
REMARK  170  A    between atoms: _447  and  _449
REMARK  171  A    between atoms: _449  and  _450
REMARK  172  A    between atoms: _449  and  _452
REMARK  173  A    between atoms: _455  and  _457
REMARK  174  A    between atoms: _457  and  _458
REMARK  175  A    between atoms: _457  and  _460
REMARK  176  A    between atoms: _460  and  _461
REMARK  177  A    between atoms: _464  and  _466
REMARK  178  A    between atoms: _466  and  _467
REMARK  179  A    between atoms: _466  and  _469
REMARK  180  A    between atoms: _469  and  _470
REMARK  181  A    between atoms: _473  and  _475
REMARK  182  A    between atoms: _475  and  _476
REMARK  183  A    between atoms: _475  and  _478
REMARK  184  A    between atoms: _478  and  _479
REMARK  185  A    between atoms: _482  and  _484
REMARK  186  A    between atoms: _484  and  _485
REMARK  187  A    between atoms: _487  and  _489
REMARK  188  A    between atoms: _489  and  _490
REMARK  189  A    between atoms: _492  and  _494
REMARK  190  A    between atoms: _494  and  _495
REMARK  191  A    between atoms: _494  and  _497
REMARK  192  A    between atoms: _497  and  _498
REMARK  193  A    between atoms: _498  and  _499
REMARK  194  A    between atoms: _502  and  _504
REMARK  195  A    between atoms: _504  and  _505
REMARK  196  A    between atoms: _504  and  _507
REMARK  197  A    between atoms: _507  and  _508
REMARK  198  A    between atoms: _511  and  _513
REMARK  199  A    between atoms: _513  and  _514
REMARK  200  A    between atoms: _513  and  _516
REMARK  201  A    between atoms: _516  and  _517
REMARK  202  A    between atoms: _523  and  _525
REMARK  203  A    between atoms: _525  and  _526
REMARK  204  A    between atoms: _525  and  _528
REMARK  205  A    between atoms: _528  and  _529
REMARK  206  A    between atoms: _534  and  _536
REMARK  207  A    between atoms: _536  and  _537
REMARK  208  A    between atoms: _536  and  _539
REMARK  209  A    between atoms: _539  and  _540
REMARK  210  A    between atoms: _545  and  _547
REMARK  211  A    between atoms: _547  and  _548
REMARK  212  A    between atoms: _547  and  _550
REMARK  213  A    between atoms: _550  and  _551
REMARK  214  A    between atoms: _554  and  _556
REMARK  215  A    between atoms: _556  and  _557
REMARK  216  A    between atoms: _556  and  _559
REMARK  217  A    between atoms: _559  and  _560
REMARK  218  A    between atoms: _565  and  _567
REMARK  219  A    between atoms: _567  and  _568
REMARK  220  A    between atoms: _567  and  _570
REMARK  221  A    between atoms: _570  and  _571
REMARK  222  A    between atoms: _571  and  _572
REMARK  223  A    between atoms: _572  and  _573
REMARK  224  A    between atoms: _582  and  _584
REMARK  225  A    between atoms: _584  and  _585
REMARK  226  A    between atoms: _587  and  _589
REMARK  227  A    between atoms: _589  and  _590
REMARK  228  A    between atoms: _589  and  _592
REMARK  229  A    between atoms: _592  and  _593
REMARK  230  A    between atoms: _598  and  _600
REMARK  231  A    between atoms: _600  and  _601
REMARK  232  A    between atoms: _603  and  _605
REMARK  233  A    between atoms: _605  and  _606
REMARK  234  A    between atoms: _609  and  _611
REMARK  235  A    between atoms: _611  and  _612
REMARK  236  A    between atoms: _614  and  _616
REMARK  237  A    between atoms: _616  and  _617
REMARK  238  A    between atoms: _619  and  _621
REMARK  239  A    between atoms: _621  and  _622
REMARK  240  A    between atoms: _621  and  _624
REMARK  241  A    between atoms: _624  and  _625
REMARK  242  A    between atoms: _625  and  _626
REMARK  243  A    between atoms: _626  and  _627
REMARK  244  A    between atoms: _636  and  _638
REMARK  245  A    between atoms: _638  and  _639
REMARK  246  A    between atoms: _638  and  _641
REMARK  247  A    between atoms: _641  and  _642
REMARK  248  A    between atoms: _645  and  _647
REMARK  249  A    between atoms: _647  and  _648
REMARK  250  A    between atoms: _647  and  _650
REMARK  251  A    between atoms: _650  and  _651
REMARK                            x       y       z     vdW  Elec       q    Type
REMARK                         _______ _______ _______ _____ _____    ______ ____
ROOT
ATOM      1  CB  GLN A   1      13.002  27.714  53.185  0.00  0.00    +0.035 C 
ENDROOT
BRANCH   1   2
ATOM      2  CA  GLN A   1      14.240  28.134  53.971  0.00  0.00    +0.134 C 
BRANCH   2   3
ATOM      3  N   GLN A   1      14.170  29.517  54.425  0.00  0.00    -0.239 NA
ATOM      4  H   GLN A   1      13.686  30.225  53.836  0.00  0.00    +0.142 HD
ENDBRANCH   2   3
BRANCH   2   5
ATOM      5  C   GLN A   1      15.440  28.156  53.040  0.00  0.00    +0.224 C 
ATOM      6  O   GLN A   1      15.493  28.969  52.117  0.00  0.00    -0.287 OA
ENDBRANCH   2   5
ENDBRANCH   1   2
BRANCH   1   7
ATOM      7  CG  GLN A   1      13.094  26.281  52.639  0.00  0.00    +0.087 C 
BRANCH   7   8
ATOM      8  CD  GLN A   1      11.912  25.902  51.781  0.00  0.00    +0.219 C 
ATOM      9  OE1 GLN A   1      10.765  25.984  52.216  0.00  0.00    -0.275 OA
ATOM     10  NE2 GLN A   1      12.184  25.471  50.556  0.00  0.00    -0.329 N 
ATOM     11 HE21 GLN A   1      13.170  25.418  50.230  0.00  0.00    +0.145 HD
ATOM     12 HE22 GLN A   1      11.411  25.186  49.921  0.00  0.00    +0.145 HD
ENDBRANCH   7   8
ENDBRANCH   1   7
TORSDOF 5
REMARK  Name = ../refined-set-2016/1xd0/1xd0_pocket.pdb
REMARK  251 active torsions:
REMARK  status: ('A' for Active; 'I' for Inactive)
REMARK    1  A    between atoms: _1  and  _3
REMARK    2  A    between atoms: _3  and  _4
REMARK    3  A    between atoms: _3  and  _6
REMARK    4  A    between atoms: _6  and  _7
REMARK    5  A    between atoms: _13  and  _15
REMARK    6  A    between atoms: _15  and  _16
REMARK    7  A    between atoms: _15  and  _18
REMARK    8  A    between atoms: _18  and  _19
REMARK    9  A    between atoms: _19  and  _20
REMARK   10  A    between atoms: _26  and  _27
REMARK   11  A    between atoms: _32  and  _34
REMARK   12  A    between atoms: _34  and  _35
REMARK   13  A    between atoms: _34  and  _37
REMARK   14  A    between atoms: _37  and  _38
REMARK   15  A    between atoms: _43  and  _45
REMARK   16  A    between atoms: _45  and  _46
REMARK   17  A    between atoms: _45  and  _48
REMARK   18  A    between atoms: _51  and  _53
REMARK   19  A    between atoms: _53  and  _54
REMARK   20  A    between atoms: _53  and  _56
REMARK   21  A    between atoms: _56  and  _57
REMARK   22  A    between atoms: _61  and  _62
REMARK   23  A    between atoms: _68  and  _69
REMARK   24  A    between atoms: _74  and  _76
REMARK   25  A    between atoms: _76  and  _77
REMARK   26  A    between atoms: _76  and  _79
REMARK   27  A    between atoms: _79  and  _80
REMARK   28  A    between atoms: _90  and  _92
REMARK   29  A    between atoms: _92  and  _93
REMARK   30  A    between atoms: _92  and  _95
REMARK   31  A    between atoms: _95  and  _96
REMARK   32  A    between atoms: _106  and  _108
REMARK   33  A    between atoms: _108  and  _109
REMARK   34  A    between atoms: _108  and  _111
REMARK   35  A    between atoms: _111  and  _112
REMARK   36  A    between atoms: _112  and  _113
REMARK   37  A    between atoms: _116  and  _118
REMARK   38  A    between atoms: _118  and  _119
REMARK   39  A    between atoms: _118  and  _121
REMARK   40  A    between atoms: _121  and  _122
REMARK   41  A    between atoms: _122  and  _123
REMARK   42  A    between atoms: _123  and  _124
REMARK   43  A    between atoms: _133  and  _135
REMARK   44  A    between atoms: _135  and  _136
REMARK   45  A    between atoms: _135  and  _138
REMARK   46  A    between atoms: _138  and  _139
REMARK   47  A    between atoms: _144  and  _145
REMARK   48  A    between atoms: _147  and  _149
REMARK   49  A    between atoms: _149  and  _150
REMARK   50  A    between atoms: _149  and  _152
REMARK   51  A    between atoms: _152  and  _153
REMARK   52  A    between atoms: _153  and  _154
REMARK   53  A    between atoms: _160  and  _161
REMARK   54  A    between atoms: _166  and  _168
REMARK   55  A    between atoms: _168  and  _169
REMARK   56  A    between atoms: _168  and  _171
REMARK   57  A    between atoms: _171  and  _172
REMARK   58  A    between atoms: _175  and  _177
REMARK   59  A    between atoms: _177  and  _178
REMARK   60  A    between atoms: _181  and  _183
REMARK   61  A    between atoms: _183  and  _184
REMARK   62  A    between atoms: _183  and  _186
REMARK   63  A    between atoms: _189  and  _191
REMARK   64  A    between atoms: _191  and  _192
REMARK   65  A    between atoms: _191  and  _194
REMARK   66  A    between atoms: _194  and  _195
REMARK   67  A    between atoms: _198  and  _200
REMARK   68  A    between atoms: _200  and  _201
REMARK   69  A    between atoms: _200  and  _203
REMARK   70  A    between atoms: _203  and  _204
REMARK   71  A    between atoms: _209  and  _211
REMARK   72  A    between atoms: _211  and  _212
REMARK   73  A    between atoms: _211  and  _214
REMARK   74  A    between atoms: _214  and  _215
REMARK   75  A    between atoms: _220  and  _222
REMARK   76  A    between atoms: _222  and  _223
REMARK   77  A    between atoms: _222  and  _225
REMARK   78  A    between atoms: _225  and  _226
REMARK   79  A    between atoms: _226  and  _227
REMARK   80  A    between atoms: _229  and  _231
REMARK   81  A    between atoms: _231  and  _232
REMARK   82  A    between atoms: _231  and  _234
REMARK   83  A    between atoms: _236  and  _238
REMARK   84  A    between atoms: _238  and  _239
REMARK   85  A    between atoms: _241  and  _243
REMARK   86  A    between atoms: _243  and  _244
REMARK   87  A    between atoms: _243  and  _246
REMARK   88  A    between atoms: _246  and  _247
REMARK   89  A    between atoms: _252  and  _254
REMARK   90  A    between atoms: _254  and  _255
REMARK   91  A    between atoms: _258  and  _260
REMARK   92  A    between atoms: _260  and  _261
REMARK   93  A    between atoms: _260  and  _263
REMARK   94  A    between atoms: _266  and  _268
REMARK   95  A    between atoms: _268  and  _269
REMARK   96  A    between atoms: _268  and  _271
REMARK   97  A    between atoms: _271  and  _272
REMARK   98  A    between atoms: _275  and  _277
REMARK   99  A    between atoms: _277  and  _278
REMARK  100  A    between atoms: _277  and  _280
REMARK  101  A    between atoms: _280  and  _281
REMARK  102  A    between atoms: _284  and  _286
REMARK  103  A    between atoms: _286  and  _287
REMARK  104  A    between atoms: _286  and  _289
REMARK  105  A    between atoms: _289  and  _290
REMARK  106  A    between atoms: _295  and  _296
REMARK  107  A    between atoms: _298  and  _300
REMARK  108  A    between atoms: _300  and  _301
REMARK  109  A    between atoms: _300  and  _303
REMARK  110  A    between atoms: _306  and  _308
REMARK  111  A    between atoms: _308  and  _309
REMARK  112  A    between atoms: _308  and  _311
REMARK  113  A    between atoms: _311  and  _312
REMARK  114  A    between atoms: _312  and  _313
REMARK  115  A    between atoms: _313  and  _314
REMARK  116  A    between atoms: _323  and  _325
REMARK  117  A    between atoms: _325  and  _326
REMARK  118  A    between atoms: _325  and  _328
REMARK  119  A    between atoms: _328  and  _329
REMARK  120  A    between atoms: _332  and  _334
REMARK  121  A    between atoms: _334  and  _335
REMARK  122  A    between atoms: _334  and  _337
REMARK  123  A    between atoms: _337  and  _338
REMARK  124  A    between atoms: _341  and  _343
REMARK  125  A    between atoms: _343  and  _344
REMARK  126  A    between atoms: _346  and  _348
REMARK  127  A    between atoms: _348  and  _349
REMARK  128  A    between atoms: _348  and  _351
REMARK  129  A    between atoms: _351  and  _352
REMARK  130  A    between atoms: _355  and  _357
REMARK  131  A    between atoms: _357  and  _358
REMARK  132  A    between atoms: _357  and  _360
REMARK  133  A    between atoms: _360  and  _361
REMARK  134  A    between atoms: _364  and  _366
REMARK  135  A    between atoms: _366  and  _367
REMARK  136  A    between atoms: _366  and  _369
REMARK  137  A    between atoms: _369  and  _370
REMARK  138  A    between atoms: _370  and  _371
REMARK  139  A    between atoms: _371  and  _372
REMARK  140  A    between atoms: _381  and  _383
REMARK  141  A    between atoms: _383  and  _384
REMARK  142  A    between atoms: _383  and  _386
REMARK  143  A    between atoms: _386  and  _387
REMARK  144  A    between atoms: _390  and  _392
REMARK  145  A    between atoms: _392  and  _393
REMARK  146  A    between atoms: _392  and  _395
REMARK  147  A    between atoms: _395  and  _396
REMARK  148  A    between atoms: _399  and  _401
REMARK  149  A    between atoms: _401  and  _402
REMARK  150  A    between atoms: _405  and  _407
REMARK  151  A    between atoms: _407  and  _408
REMARK  152  A    between atoms: _407  and  _410
REMARK  153  A    between atoms: _410  and  _411
REMARK  154  A    between atoms: _413  and  _415
REMARK  155  A    between atoms: _415  and  _416
REMARK  156  A    between atoms: _415  and  _418
REMARK  157  A    between atoms: _418  and  _419
REMARK  158  A    between atoms: _419  and  _420
REMARK  159  A    between atoms: _420  and  _421
REMARK  160  A    between atoms: _421  and  _422
REMARK  161  A    between atoms: _426  and  _428
REMARK  162  A    between atoms: _428  and  _429
REMARK  163  A    between atoms: _428  and  _431
REMARK  164  A    between atoms: _431  and  _432
REMARK  165  A    between atoms: _437  and  _439
REMARK  166  A    between atoms: _439  and  _440
REMARK  167  A    between atoms: _439  and  _442
REMARK  168  A    between atoms: _442  and  _443
REMARK  169  A    between atoms: _443  and  _444
REMARK  170  A    between atoms: _447  and  _449
REMARK  171  A    between atoms: _449  and  _450
REMARK  172  A    between atoms: _449  and  _452
REMARK  173  A    between atoms: _455  and  _457
REMARK  174  A    between atoms: _457  and  _458
REMARK  175  A    between atoms: _457  and  _460
REMARK  176  A    between atoms: _460  and  _461
REMARK  177  A    between atoms: _464  and  _466
REMARK  178  A    between atoms: _466  and  _467
REMARK  179  A    between atoms: _466  and  _469
REMARK  180  A    between atoms: _469  and  _470
REMARK  181  A    between atoms: _473  and  _475
REMARK  182  A    between atoms: _475  and  _476
REMARK  183  A    between atoms: _475  and  _478
REMARK  184  A    between atoms: _478  and  _479
REMARK  185  A    between atoms: _482  and  _484
REMARK  186  A    between atoms: _484  and  _485
REMARK  187  A    between atoms: _487  and  _489
REMARK  188  A    between atoms: _489  and  _490
REMARK  189  A    between atoms: _492  and  _494
REMARK  190  A    between atoms: _494  and  _495
REMARK  191  A    between atoms: _494  and  _497
REMARK  192  A    between atoms: _497  and  _498
REMARK  193  A    between atoms: _498  and  _499
REMARK  194  A    between atoms: _502  and  _504
REMARK  195  A    between atoms: _504  and  _505
REMARK  196  A    between atoms: _504  and  _507
REMARK  197  A    between atoms: _507  and  _508
REMARK  198  A    between atoms: _511  and  _513
REMARK  199  A    between atoms: _513  and  _514
REMARK  200  A    between atoms: _513  and  _516
REMARK  201  A    between atoms: _516  and  _517
REMARK  202  A    between atoms: _523  and  _525
REMARK  203  A    between atoms: _525  and  _526
REMARK  204  A    between atoms: _525  and  _528
REMARK  205  A    between atoms: _528  and  _529
REMARK  206  A    between atoms: _534  and  _536
REMARK  207  A    between atoms: _536  and  _537
REMARK  208  A    between atoms: _536  and  _539
REMARK  209  A    between atoms: _539  and  _540
REMARK  210  A    between atoms: _545  and  _547
REMARK  211  A    between atoms: _547  and  _548
REMARK  212  A    between atoms: _547  and  _550
REMARK  213  A    between atoms: _550  and  _551
REMARK  214  A    between atoms: _554  and  _556
REMARK  215  A    between atoms: _556  and  _557
REMARK  216  A    between atoms: _556  and  _559
REMARK  217  A    between atoms: _559  and  _560
REMARK  218  A    between atoms: _565  and  _567
REMARK  219  A    between atoms: _567  and  _568
REMARK  220  A    between atoms: _567  and  _570
REMARK  221  A    between atoms: _570  and  _571
REMARK  222  A    between atoms: _571  and  _572
REMARK  223  A    between atoms: _572  and  _573
REMARK  224  A    between atoms: _582  and  _584
REMARK  225  A    between atoms: _584  and  _585
REMARK  226  A    between atoms: _587  and  _589
REMARK  227  A    between atoms: _589  and  _590
REMARK  228  A    between atoms: _589  and  _592
REMARK  229  A    between atoms: _592  and  _593
REMARK  230  A    between atoms: _598  and  _600
REMARK  231  A    between atoms: _600  and  _601
REMARK  232  A    between atoms: _603  and  _605
REMARK  233  A    between atoms: _605  and  _606
REMARK  234  A    between atoms: _609  and  _611
REMARK  235  A    between atoms: _611  and  _612
REMARK  236  A    between atoms: _614  and  _616
REMARK  237  A    between atoms: _616  and  _617
REMARK  238  A    between atoms: _619  and  _621
REMARK  239  A    between atoms: _621  and  _622
REMARK  240  A    between atoms: _621  and  _624
REMARK  241  A    between atoms: _624  and  _625
REMARK  242  A    between atoms: _625  and  _626
REMARK  243  A    between atoms: _626  and  _627
REMARK  244  A    between atoms: _636  and  _638
REMARK  245  A    between atoms: _638  and  _639
REMARK  246  A    between atoms: _638  and  _641
REMARK  247  A    between atoms: _641  and  _642
REMARK  248  A    between atoms: _645  and  _647
REMARK  249  A    between atoms: _647  and  _648
REMARK  250  A    between atoms: _647  and  _650
REMARK  251  A    between atoms: _650  and  _651
REMARK                            x       y       z     vdW  Elec       q    Type
REMARK                         _______ _______ _______ _____ _____    ______ ____
ROOT
ATOM      1  N   PRO A   1      18.988  22.526  49.814  0.00  0.00    -0.212 NA
ATOM      2  CA  PRO A   1      19.661  21.380  50.449  0.00  0.00    +0.137 C 
ATOM      3  CB  PRO A   1      19.477  20.285  49.416  0.00  0.00    +0.027 C 
ATOM      4  CG  PRO A   1      18.127  20.615  48.849  0.00  0.00    +0.021 C 
ATOM      5  CD  PRO A   1      18.199  22.059  48.645  0.00  0.00    +0.089 C 
ENDROOT
BRANCH   2   6
ATOM      6  C   PRO A   1      21.154  21.648  50.729  0.00  0.00    +0.224 C 
ATOM      7  O   PRO A   1      21.885  22.079  49.838  0.00  0.00    -0.287 OA
ENDBRANCH   2   6
TORSDOF 1
REMARK  Name = ../refined-set-2016/1xd0/1xd0_pocket.pdb
REMARK  251 active torsions:
REMARK  status: ('A' for Active; 'I' for Inactive)
REMARK    1  A    between atoms: _1  and  _3
REMARK    2  A    between atoms: _3  and  _4
REMARK    3  A    between atoms: _3  and  _6
REMARK    4  A    between atoms: _6  and  _7
REMARK    5  A    between atoms: _13  and  _15
REMARK    6  A    between atoms: _15  and  _16
REMARK    7  A    between atoms: _15  and  _18
REMARK    8  A    between atoms: _18  and  _19
REMARK    9  A    between atoms: _19  and  _20
REMARK   10  A    between atoms: _26  and  _27
REMARK   11  A    between atoms: _32  and  _34
REMARK   12  A    between atoms: _34  and  _35
REMARK   13  A    between atoms: _34  and  _37
REMARK   14  A    between atoms: _37  and  _38
REMARK   15  A    between atoms: _43  and  _45
REMARK   16  A    between atoms: _45  and  _46
REMARK   17  A    between atoms: _45  and  _48
REMARK   18  A    between atoms: _51  and  _53
REMARK   19  A    between atoms: _53  and  _54
REMARK   20  A    between atoms: _53  and  _56
REMARK   21  A    between atoms: _56  and  _57
REMARK   22  A    between atoms: _61  and  _62
REMARK   23  A    between atoms: _68  and  _69
REMARK   24  A    between atoms: _74  and  _76
REMARK   25  A    between atoms: _76  and  _77
REMARK   26  A    between atoms: _76  and  _79
REMARK   27  A    between atoms: _79  and  _80
REMARK   28  A    between atoms: _90  and  _92
REMARK   29  A    between atoms: _92  and  _93
REMARK   30  A    between atoms: _92  and  _95
REMARK   31  A    between atoms: _95  and  _96
REMARK   32  A    between atoms: _106  and  _108
REMARK   33  A    between atoms: _108  and  _109
REMARK   34  A    between atoms: _108  and  _111
REMARK   35  A    between atoms: _111  and  _112
REMARK   36  A    between atoms: _112  and  _113
REMARK   37  A    between atoms: _116  and  _118
REMARK   38  A    between atoms: _118  and  _119
REMARK   39  A    between atoms: _118  and  _121
REMARK   40  A    between atoms: _121  and  _122
REMARK   41  A    between atoms: _122  and  _123
REMARK   42  A    between atoms: _123  and  _124
REMARK   43  A    between atoms: _133  and  _135
REMARK   44  A    between atoms: _135  and  _136
REMARK   45  A    between atoms: _135  and  _138
REMARK   46  A    between atoms: _138  and  _139
REMARK   47  A    between atoms: _144  and  _145
REMARK   48  A    between atoms: _147  and  _149
REMARK   49  A    between atoms: _149  and  _150
REMARK   50  A    between atoms: _149  and  _152
REMARK   51  A    between atoms: _152  and  _153
REMARK   52  A    between atoms: _153  and  _154
REMARK   53  A    between atoms: _160  and  _161
REMARK   54  A    between atoms: _166  and  _168
REMARK   55  A    between atoms: _168  and  _169
REMARK   56  A    between atoms: _168  and  _171
REMARK   57  A    between atoms: _171  and  _172
REMARK   58  A    between atoms: _175  and  _177
REMARK   59  A    between atoms: _177  and  _178
REMARK   60  A    between atoms: _181  and  _183
REMARK   61  A    between atoms: _183  and  _184
REMARK   62  A    between atoms: _183  and  _186
REMARK   63  A    between atoms: _189  and  _191
REMARK   64  A    between atoms: _191  and  _192
REMARK   65  A    between atoms: _191  and  _194
REMARK   66  A    between atoms: _194  and  _195
REMARK   67  A    between atoms: _198  and  _200
REMARK   68  A    between atoms: _200  and  _201
REMARK   69  A    between atoms: _200  and  _203
REMARK   70  A    between atoms: _203  and  _204
REMARK   71  A    between atoms: _209  and  _211
REMARK   72  A    between atoms: _211  and  _212
REMARK   73  A    between atoms: _211  and  _214
REMARK   74  A    between atoms: _214  and  _215
REMARK   75  A    between atoms: _220  and  _222
REMARK   76  A    between atoms: _222  and  _223
REMARK   77  A    between atoms: _222  and  _225
REMARK   78  A    between atoms: _225  and  _226
REMARK   79  A    between atoms: _226  and  _227
REMARK   80  A    between atoms: _229  and  _231
REMARK   81  A    between atoms: _231  and  _232
REMARK   82  A    between atoms: _231  and  _234
REMARK   83  A    between atoms: _236  and  _238
REMARK   84  A    between atoms: _238  and  _239
REMARK   85  A    between atoms: _241  and  _243
REMARK   86  A    between atoms: _243  and  _244
REMARK   87  A    between atoms: _243  and  _246
REMARK   88  A    between atoms: _246  and  _247
REMARK   89  A    between atoms: _252  and  _254
REMARK   90  A    between atoms: _254  and  _255
REMARK   91  A    between atoms: _258  and  _260
REMARK   92  A    between atoms: _260  and  _261
REMARK   93  A    between atoms: _260  and  _263
REMARK   94  A    between atoms: _266  and  _268
REMARK   95  A    between atoms: _268  and  _269
REMARK   96  A    between atoms: _268  and  _271
REMARK   97  A    between atoms: _271  and  _272
REMARK   98  A    between atoms: _275  and  _277
REMARK   99  A    between atoms: _277  and  _278
REMARK  100  A    between atoms: _277  and  _280
REMARK  101  A    between atoms: _280  and  _281
REMARK  102  A    between atoms: _284  and  _286
REMARK  103  A    between atoms: _286  and  _287
REMARK  104  A    between atoms: _286  and  _289
REMARK  105  A    between atoms: _289  and  _290
REMARK  106  A    between atoms: _295  and  _296
REMARK  107  A    between atoms: _298  and  _300
REMARK  108  A    between atoms: _300  and  _301
REMARK  109  A    between atoms: _300  and  _303
REMARK  110  A    between atoms: _306  and  _308
REMARK  111  A    between atoms: _308  and  _309
REMARK  112  A    between atoms: _308  and  _311
REMARK  113  A    between atoms: _311  and  _312
REMARK  114  A    between atoms: _312  and  _313
REMARK  115  A    between atoms: _313  and  _314
REMARK  116  A    between atoms: _323  and  _325
REMARK  117  A    between atoms: _325  and  _326
REMARK  118  A    between atoms: _325  and  _328
REMARK  119  A    between atoms: _328  and  _329
REMARK  120  A    between atoms: _332  and  _334
REMARK  121  A    between atoms: _334  and  _335
REMARK  122  A    between atoms: _334  and  _337
REMARK  123  A    between atoms: _337  and  _338
REMARK  124  A    between atoms: _341  and  _343
REMARK  125  A    between atoms: _343  and  _344
REMARK  126  A    between atoms: _346  and  _348
REMARK  127  A    between atoms: _348  and  _349
REMARK  128  A    between atoms: _348  and  _351
REMARK  129  A    between atoms: _351  and  _352
REMARK  130  A    between atoms: _355  and  _357
REMARK  131  A    between atoms: _357  and  _358
REMARK  132  A    between atoms: _357  and  _360
REMARK  133  A    between atoms: _360  and  _361
REMARK  134  A    between atoms: _364  and  _366
REMARK  135  A    between atoms: _366  and  _367
REMARK  136  A    between atoms: _366  and  _369
REMARK  137  A    between atoms: _369  and  _370
REMARK  138  A    between atoms: _370  and  _371
REMARK  139  A    between atoms: _371  and  _372
REMARK  140  A    between atoms: _381  and  _383
REMARK  141  A    between atoms: _383  and  _384
REMARK  142  A    between atoms: _383  and  _386
REMARK  143  A    between atoms: _386  and  _387
REMARK  144  A    between atoms: _390  and  _392
REMARK  145  A    between atoms: _392  and  _393
REMARK  146  A    between atoms: _392  and  _395
REMARK  147  A    between atoms: _395  and  _396
REMARK  148  A    between atoms: _399  and  _401
REMARK  149  A    between atoms: _401  and  _402
REMARK  150  A    between atoms: _405  and  _407
REMARK  151  A    between atoms: _407  and  _408
REMARK  152  A    between atoms: _407  and  _410
REMARK  153  A    between atoms: _410  and  _411
REMARK  154  A    between atoms: _413  and  _415
REMARK  155  A    between atoms: _415  and  _416
REMARK  156  A    between atoms: _415  and  _418
REMARK  157  A    between atoms: _418  and  _419
REMARK  158  A    between atoms: _419  and  _420
REMARK  159  A    between atoms: _420  and  _421
REMARK  160  A    between atoms: _421  and  _422
REMARK  161  A    between atoms: _426  and  _428
REMARK  162  A    between atoms: _428  and  _429
REMARK  163  A    between atoms: _428  and  _431
REMARK  164  A    between atoms: _431  and  _432
REMARK  165  A    between atoms: _437  and  _439
REMARK  166  A    between atoms: _439  and  _440
REMARK  167  A    between atoms: _439  and  _442
REMARK  168  A    between atoms: _442  and  _443
REMARK  169  A    between atoms: _443  and  _444
REMARK  170  A    between atoms: _447  and  _449
REMARK  171  A    between atoms: _449  and  _450
REMARK  172  A    between atoms: _449  and  _452
REMARK  173  A    between atoms: _455  and  _457
REMARK  174  A    between atoms: _457  and  _458
REMARK  175  A    between atoms: _457  and  _460
REMARK  176  A    between atoms: _460  and  _461
REMARK  177  A    between atoms: _464  and  _466
REMARK  178  A    between atoms: _466  and  _467
REMARK  179  A    between atoms: _466  and  _469
REMARK  180  A    between atoms: _469  and  _470
REMARK  181  A    between atoms: _473  and  _475
REMARK  182  A    between atoms: _475  and  _476
REMARK  183  A    between atoms: _475  and  _478
REMARK  184  A    between atoms: _478  and  _479
REMARK  185  A    between atoms: _482  and  _484
REMARK  186  A    between atoms: _484  and  _485
REMARK  187  A    between atoms: _487  and  _489
REMARK  188  A    between atoms: _489  and  _490
REMARK  189  A    between atoms: _492  and  _494
REMARK  190  A    between atoms: _494  and  _495
REMARK  191  A    between atoms: _494  and  _497
REMARK  192  A    between atoms: _497  and  _498
REMARK  193  A    between atoms: _498  and  _499
REMARK  194  A    between atoms: _502  and  _504
REMARK  195  A    between atoms: _504  and  _505
REMARK  196  A    between atoms: _504  and  _507
REMARK  197  A    between atoms: _507  and  _508
REMARK  198  A    between atoms: _511  and  _513
REMARK  199  A    between atoms: _513  and  _514
REMARK  200  A    between atoms: _513  and  _516
REMARK  201  A    between atoms: _516  and  _517
REMARK  202  A    between atoms: _523  and  _525
REMARK  203  A    between atoms: _525  and  _526
REMARK  204  A    between atoms: _525  and  _528
REMARK  205  A    between atoms: _528  and  _529
REMARK  206  A    between atoms: _534  and  _536
REMARK  207  A    between atoms: _536  and  _537
REMARK  208  A    between atoms: _536  and  _539
REMARK  209  A    between atoms: _539  and  _540
REMARK  210  A    between atoms: _545  and  _547
REMARK  211  A    between atoms: _547  and  _548
REMARK  212  A    between atoms: _547  and  _550
REMARK  213  A    between atoms: _550  and  _551
REMARK  214  A    between atoms: _554  and  _556
REMARK  215  A    between atoms: _556  and  _557
REMARK  216  A    between atoms: _556  and  _559
REMARK  217  A    between atoms: _559  and  _560
REMARK  218  A    between atoms: _565  and  _567
REMARK  219  A    between atoms: _567  and  _568
REMARK  220  A    between atoms: _567  and  _570
REMARK  221  A    between atoms: _570  and  _571
REMARK  222  A    between atoms: _571  and  _572
REMARK  223  A    between atoms: _572  and  _573
REMARK  224  A    between atoms: _582  and  _584
REMARK  225  A    between atoms: _584  and  _585
REMARK  226  A    between atoms: _587  and  _589
REMARK  227  A    between atoms: _589  and  _590
REMARK  228  A    between atoms: _589  and  _592
REMARK  229  A    between atoms: _592  and  _593
REMARK  230  A    between atoms: _598  and  _600
REMARK  231  A    between atoms: _600  and  _601
REMARK  232  A    between atoms: _603  and  _605
REMARK  233  A    between atoms: _605  and  _606
REMARK  234  A    between atoms: _609  and  _611
REMARK  235  A    between atoms: _611  and  _612
REMARK  236  A    between atoms: _614  and  _616
REMARK  237  A    between atoms: _616  and  _617
REMARK  238  A    between atoms: _619  and  _621
REMARK  239  A    between atoms: _621  and  _622
REMARK  240  A    between atoms: _621  and  _624
REMARK  241  A    between atoms: _624  and  _625
REMARK  242  A    between atoms: _625  and  _626
REMARK  243  A    between atoms: _626  and  _627
REMARK  244  A    between atoms: _636  and  _638
REMARK  245  A    between atoms: _638  and  _639
REMARK  246  A    between atoms: _638  and  _641
REMARK  247  A    between atoms: _641  and  _642
REMARK  248  A    between atoms: _645  and  _647
REMARK  249  A    between atoms: _647  and  _648
REMARK  250  A    between atoms: _647  and  _650
REMARK  251  A    between atoms: _650  and  _651
REMARK                            x       y       z     vdW  Elec       q    Type
REMARK                         _______ _______ _______ _____ _____    ______ ____
ROOT
ATOM      1  C   ASN A   1      25.799  16.203  44.429  0.00  0.00    +0.239 C 
ATOM      2  O   ASN A   1      26.975  16.562  44.380  0.00  0.00    -0.274 OA
ATOM      3  N   VAL A   2      25.167  15.597  43.426  0.00  0.00    -0.298 N 
ATOM      4  H   VAL A   2      24.166  15.339  43.541  0.00  0.00    +0.150 HD
ENDROOT
BRANCH   1   5
ATOM      5  CA  ASN A   1      24.963  16.503  45.652  0.00  0.00    +0.154 C 
BRANCH   5   6
ATOM      6  N   ASN A   1      25.769  17.017  46.741  0.00  0.00    -0.238 NA
ATOM      7  H   ASN A   1      26.409  17.817  46.563  0.00  0.00    +0.142 HD
ENDBRANCH   5   6
BRANCH   5   8
ATOM      8  CB  ASN A   1      23.864  17.508  45.309  0.00  0.00    +0.111 C 
BRANCH   8   9
ATOM      9  CG  ASN A   1      24.414  18.857  44.865  0.00  0.00    +0.221 C 
ATOM     10  OD1 ASN A   1      24.639  19.741  45.683  0.00  0.00    -0.275 OA
ATOM     11  ND2 ASN A   1      24.649  19.008  43.568  0.00  0.00    -0.329 N 
ATOM     12 HD21 ASN A   1      25.039  19.904  43.211  0.00  0.00    +0.145 HD
ATOM     13 HD22 ASN A   1      24.443  18.231  42.908  0.00  0.00    +0.145 HD
ENDBRANCH   8   9
ENDBRANCH   5   8
ENDBRANCH   1   5
BRANCH   3  14
ATOM     14  CA  VAL A   2      25.840  15.284  42.168  0.00  0.00    +0.137 C 
BRANCH  14  15
ATOM     15  CB  VAL A   2      24.984  14.361  41.277  0.00  0.00    +0.026 C 
ATOM     16  CG2 VAL A   2      24.669  13.103  41.987  0.00  0.00    +0.002 C 
ATOM     17  CG1 VAL A   2      25.720  14.022  39.983  0.00  0.00    +0.002 C 
ENDBRANCH  14  15
BRANCH  14  18
ATOM     18  C   VAL A   2      26.075  16.586  41.402  0.00  0.00    +0.227 C 
ATOM     19  O   VAL A   2      25.228  17.479  41.420  0.00  0.00    -0.286 OA
ENDBRANCH  14  18
ENDBRANCH   3  14
TORSDOF 7
REMARK  Name = ../refined-set-2016/1xd0/1xd0_pocket.pdb
REMARK  251 active torsions:
REMARK  status: ('A' for Active; 'I' for Inactive)
REMARK    1  A    between atoms: _1  and  _3
REMARK    2  A    between atoms: _3  and  _4
REMARK    3  A    between atoms: _3  and  _6
REMARK    4  A    between atoms: _6  and  _7
REMARK    5  A    between atoms: _13  and  _15
REMARK    6  A    between atoms: _15  and  _16
REMARK    7  A    between atoms: _15  and  _18
REMARK    8  A    between atoms: _18  and  _19
REMARK    9  A    between atoms: _19  and  _20
REMARK   10  A    between atoms: _26  and  _27
REMARK   11  A    between atoms: _32  and  _34
REMARK   12  A    between atoms: _34  and  _35
REMARK   13  A    between atoms: _34  and  _37
REMARK   14  A    between atoms: _37  and  _38
REMARK   15  A    between atoms: _43  and  _45
REMARK   16  A    between atoms: _45  and  _46
REMARK   17  A    between atoms: _45  and  _48
REMARK   18  A    between atoms: _51  and  _53
REMARK   19  A    between atoms: _53  and  _54
REMARK   20  A    between atoms: _53  and  _56
REMARK   21  A    between atoms: _56  and  _57
REMARK   22  A    between atoms: _61  and  _62
REMARK   23  A    between atoms: _68  and  _69
REMARK   24  A    between atoms: _74  and  _76
REMARK   25  A    between atoms: _76  and  _77
REMARK   26  A    between atoms: _76  and  _79
REMARK   27  A    between atoms: _79  and  _80
REMARK   28  A    between atoms: _90  and  _92
REMARK   29  A    between atoms: _92  and  _93
REMARK   30  A    between atoms: _92  and  _95
REMARK   31  A    between atoms: _95  and  _96
REMARK   32  A    between atoms: _106  and  _108
REMARK   33  A    between atoms: _108  and  _109
REMARK   34  A    between atoms: _108  and  _111
REMARK   35  A    between atoms: _111  and  _112
REMARK   36  A    between atoms: _112  and  _113
REMARK   37  A    between atoms: _116  and  _118
REMARK   38  A    between atoms: _118  and  _119
REMARK   39  A    between atoms: _118  and  _121
REMARK   40  A    between atoms: _121  and  _122
REMARK   41  A    between atoms: _122  and  _123
REMARK   42  A    between atoms: _123  and  _124
REMARK   43  A    between atoms: _133  and  _135
REMARK   44  A    between atoms: _135  and  _136
REMARK   45  A    between atoms: _135  and  _138
REMARK   46  A    between atoms: _138  and  _139
REMARK   47  A    between atoms: _144  and  _145
REMARK   48  A    between atoms: _147  and  _149
REMARK   49  A    between atoms: _149  and  _150
REMARK   50  A    between atoms: _149  and  _152
REMARK   51  A    between atoms: _152  and  _153
REMARK   52  A    between atoms: _153  and  _154
REMARK   53  A    between atoms: _160  and  _161
REMARK   54  A    between atoms: _166  and  _168
REMARK   55  A    between atoms: _168  and  _169
REMARK   56  A    between atoms: _168  and  _171
REMARK   57  A    between atoms: _171  and  _172
REMARK   58  A    between atoms: _175  and  _177
REMARK   59  A    between atoms: _177  and  _178
REMARK   60  A    between atoms: _181  and  _183
REMARK   61  A    between atoms: _183  and  _184
REMARK   62  A    between atoms: _183  and  _186
REMARK   63  A    between atoms: _189  and  _191
REMARK   64  A    between atoms: _191  and  _192
REMARK   65  A    between atoms: _191  and  _194
REMARK   66  A    between atoms: _194  and  _195
REMARK   67  A    between atoms: _198  and  _200
REMARK   68  A    between atoms: _200  and  _201
REMARK   69  A    between atoms: _200  and  _203
REMARK   70  A    between atoms: _203  and  _204
REMARK   71  A    between atoms: _209  and  _211
REMARK   72  A    between atoms: _211  and  _212
REMARK   73  A    between atoms: _211  and  _214
REMARK   74  A    between atoms: _214  and  _215
REMARK   75  A    between atoms: _220  and  _222
REMARK   76  A    between atoms: _222  and  _223
REMARK   77  A    between atoms: _222  and  _225
REMARK   78  A    between atoms: _225  and  _226
REMARK   79  A    between atoms: _226  and  _227
REMARK   80  A    between atoms: _229  and  _231
REMARK   81  A    between atoms: _231  and  _232
REMARK   82  A    between atoms: _231  and  _234
REMARK   83  A    between atoms: _236  and  _238
REMARK   84  A    between atoms: _238  and  _239
REMARK   85  A    between atoms: _241  and  _243
REMARK   86  A    between atoms: _243  and  _244
REMARK   87  A    between atoms: _243  and  _246
REMARK   88  A    between atoms: _246  and  _247
REMARK   89  A    between atoms: _252  and  _254
REMARK   90  A    between atoms: _254  and  _255
REMARK   91  A    between atoms: _258  and  _260
REMARK   92  A    between atoms: _260  and  _261
REMARK   93  A    between atoms: _260  and  _263
REMARK   94  A    between atoms: _266  and  _268
REMARK   95  A    between atoms: _268  and  _269
REMARK   96  A    between atoms: _268  and  _271
REMARK   97  A    between atoms: _271  and  _272
REMARK   98  A    between atoms: _275  and  _277
REMARK   99  A    between atoms: _277  and  _278
REMARK  100  A    between atoms: _277  and  _280
REMARK  101  A    between atoms: _280  and  _281
REMARK  102  A    between atoms: _284  and  _286
REMARK  103  A    between atoms: _286  and  _287
REMARK  104  A    between atoms: _286  and  _289
REMARK  105  A    between atoms: _289  and  _290
REMARK  106  A    between atoms: _295  and  _296
REMARK  107  A    between atoms: _298  and  _300
REMARK  108  A    between atoms: _300  and  _301
REMARK  109  A    between atoms: _300  and  _303
REMARK  110  A    between atoms: _306  and  _308
REMARK  111  A    between atoms: _308  and  _309
REMARK  112  A    between atoms: _308  and  _311
REMARK  113  A    between atoms: _311  and  _312
REMARK  114  A    between atoms: _312  and  _313
REMARK  115  A    between atoms: _313  and  _314
REMARK  116  A    between atoms: _323  and  _325
REMARK  117  A    between atoms: _325  and  _326
REMARK  118  A    between atoms: _325  and  _328
REMARK  119  A    between atoms: _328  and  _329
REMARK  120  A    between atoms: _332  and  _334
REMARK  121  A    between atoms: _334  and  _335
REMARK  122  A    between atoms: _334  and  _337
REMARK  123  A    between atoms: _337  and  _338
REMARK  124  A    between atoms: _341  and  _343
REMARK  125  A    between atoms: _343  and  _344
REMARK  126  A    between atoms: _346  and  _348
REMARK  127  A    between atoms: _348  and  _349
REMARK  128  A    between atoms: _348  and  _351
REMARK  129  A    between atoms: _351  and  _352
REMARK  130  A    between atoms: _355  and  _357
REMARK  131  A    between atoms: _357  and  _358
REMARK  132  A    between atoms: _357  and  _360
REMARK  133  A    between atoms: _360  and  _361
REMARK  134  A    between atoms: _364  and  _366
REMARK  135  A    between atoms: _366  and  _367
REMARK  136  A    between atoms: _366  and  _369
REMARK  137  A    between atoms: _369  and  _370
REMARK  138  A    between atoms: _370  and  _371
REMARK  139  A    between atoms: _371  and  _372
REMARK  140  A    between atoms: _381  and  _383
REMARK  141  A    between atoms: _383  and  _384
REMARK  142  A    between atoms: _383  and  _386
REMARK  143  A    between atoms: _386  and  _387
REMARK  144  A    between atoms: _390  and  _392
REMARK  145  A    between atoms: _392  and  _393
REMARK  146  A    between atoms: _392  and  _395
REMARK  147  A    between atoms: _395  and  _396
REMARK  148  A    between atoms: _399  and  _401
REMARK  149  A    between atoms: _401  and  _402
REMARK  150  A    between atoms: _405  and  _407
REMARK  151  A    between atoms: _407  and  _408
REMARK  152  A    between atoms: _407  and  _410
REMARK  153  A    between atoms: _410  and  _411
REMARK  154  A    between atoms: _413  and  _415
REMARK  155  A    between atoms: _415  and  _416
REMARK  156  A    between atoms: _415  and  _418
REMARK  157  A    between atoms: _418  and  _419
REMARK  158  A    between atoms: _419  and  _420
REMARK  159  A    between atoms: _420  and  _421
REMARK  160  A    between atoms: _421  and  _422
REMARK  161  A    between atoms: _426  and  _428
REMARK  162  A    between atoms: _428  and  _429
REMARK  163  A    between atoms: _428  and  _431
REMARK  164  A    between atoms: _431  and  _432
REMARK  165  A    between atoms: _437  and  _439
REMARK  166  A    between atoms: _439  and  _440
REMARK  167  A    between atoms: _439  and  _442
REMARK  168  A    between atoms: _442  and  _443
REMARK  169  A    between atoms: _443  and  _444
REMARK  170  A    between atoms: _447  and  _449
REMARK  171  A    between atoms: _449  and  _450
REMARK  172  A    between atoms: _449  and  _452
REMARK  173  A    between atoms: _455  and  _457
REMARK  174  A    between atoms: _457  and  _458
REMARK  175  A    between atoms: _457  and  _460
REMARK  176  A    between atoms: _460  and  _461
REMARK  177  A    between atoms: _464  and  _466
REMARK  178  A    between atoms: _466  and  _467
REMARK  179  A    between atoms: _466  and  _469
REMARK  180  A    between atoms: _469  and  _470
REMARK  181  A    between atoms: _473  and  _475
REMARK  182  A    between atoms: _475  and  _476
REMARK  183  A    between atoms: _475  and  _478
REMARK  184  A    between atoms: _478  and  _479
REMARK  185  A    between atoms: _482  and  _484
REMARK  186  A    between atoms: _484  and  _485
REMARK  187  A    between atoms: _487  and  _489
REMARK  188  A    between atoms: _489  and  _490
REMARK  189  A    between atoms: _492  and  _494
REMARK  190  A    between atoms: _494  and  _495
REMARK  191  A    between atoms: _494  and  _497
REMARK  192  A    between atoms: _497  and  _498
REMARK  193  A    between atoms: _498  and  _499
REMARK  194  A    between atoms: _502  and  _504
REMARK  195  A    between atoms: _504  and  _505
REMARK  196  A    between atoms: _504  and  _507
REMARK  197  A    between atoms: _507  and  _508
REMARK  198  A    between atoms: _511  and  _513
REMARK  199  A    between atoms: _513  and  _514
REMARK  200  A    between atoms: _513  and  _516
REMARK  201  A    between atoms: _516  and  _517
REMARK  202  A    between atoms: _523  and  _525
REMARK  203  A    between atoms: _525  and  _526
REMARK  204  A    between atoms: _525  and  _528
REMARK  205  A    between atoms: _528  and  _529
REMARK  206  A    between atoms: _534  and  _536
REMARK  207  A    between atoms: _536  and  _537
REMARK  208  A    between atoms: _536  and  _539
REMARK  209  A    between atoms: _539  and  _540
REMARK  210  A    between atoms: _545  and  _547
REMARK  211  A    between atoms: _547  and  _548
REMARK  212  A    between atoms: _547  and  _550
REMARK  213  A    between atoms: _550  and  _551
REMARK  214  A    between atoms: _554  and  _556
REMARK  215  A    between atoms: _556  and  _557
REMARK  216  A    between atoms: _556  and  _559
REMARK  217  A    between atoms: _559  and  _560
REMARK  218  A    between atoms: _565  and  _567
REMARK  219  A    between atoms: _567  and  _568
REMARK  220  A    between atoms: _567  and  _570
REMARK  221  A    between atoms: _570  and  _571
REMARK  222  A    between atoms: _571  and  _572
REMARK  223  A    between atoms: _572  and  _573
REMARK  224  A    between atoms: _582  and  _584
REMARK  225  A    between atoms: _584  and  _585
REMARK  226  A    between atoms: _587  and  _589
REMARK  227  A    between atoms: _589  and  _590
REMARK  228  A    between atoms: _589  and  _592
REMARK  229  A    between atoms: _592  and  _593
REMARK  230  A    between atoms: _598  and  _600
REMARK  231  A    between atoms: _600  and  _601
REMARK  232  A    between atoms: _603  and  _605
REMARK  233  A    between atoms: _605  and  _606
REMARK  234  A    between atoms: _609  and  _611
REMARK  235  A    between atoms: _611  and  _612
REMARK  236  A    between atoms: _614  and  _616
REMARK  237  A    between atoms: _616  and  _617
REMARK  238  A    between atoms: _619  and  _621
REMARK  239  A    between atoms: _621  and  _622
REMARK  240  A    between atoms: _621  and  _624
REMARK  241  A    between atoms: _624  and  _625
REMARK  242  A    between atoms: _625  and  _626
REMARK  243  A    between atoms: _626  and  _627
REMARK  244  A    between atoms: _636  and  _638
REMARK  245  A    between atoms: _638  and  _639
REMARK  246  A    between atoms: _638  and  _641
REMARK  247  A    between atoms: _641  and  _642
REMARK  248  A    between atoms: _645  and  _647
REMARK  249  A    between atoms: _647  and  _648
REMARK  250  A    between atoms: _647  and  _650
REMARK  251  A    between atoms: _650  and  _651
REMARK                            x       y       z     vdW  Elec       q    Type
REMARK                         _______ _______ _______ _____ _____    ______ ____
ROOT
ATOM      1  CA  ILE A   1      25.684  17.756  36.674  0.00  0.00    +0.133 C 
ENDROOT
BRANCH   1   2
ATOM      2  N   ILE A   1      26.148  18.054  38.030  0.00  0.00    -0.239 NA
ATOM      3  H   ILE A   1      25.619  18.742  38.603  0.00  0.00    +0.142 HD
ENDBRANCH   1   2
BRANCH   1   4
ATOM      4  CB  ILE A   1      24.136  17.710  36.612  0.00  0.00    +0.023 C 
ATOM      5  CG2 ILE A   1      23.634  17.397  35.194  0.00  0.00    +0.002 C 
BRANCH   4   6
ATOM      6  CG1 ILE A   1      23.563  16.714  37.618  0.00  0.00    +0.002 C 
ATOM      7  CD1 ILE A   1      23.874  15.283  37.328  0.00  0.00    +0.000 C 
ENDBRANCH   4   6
ENDBRANCH   1   4
BRANCH   1   8
ATOM      8  C   ILE A   1      26.201  18.789  35.684  0.00  0.00    +0.224 C 
ATOM      9  O   ILE A   1      25.985  19.970  35.863  0.00  0.00    -0.287 OA
ENDBRANCH   1   8
TORSDOF 4
REMARK  Name = ../refined-set-2016/1xd0/1xd0_pocket.pdb
REMARK  251 active torsions:
REMARK  status: ('A' for Active; 'I' for Inactive)
REMARK    1  A    between atoms: _1  and  _3
REMARK    2  A    between atoms: _3  and  _4
REMARK    3  A    between atoms: _3  and  _6
REMARK    4  A    between atoms: _6  and  _7
REMARK    5  A    between atoms: _13  and  _15
REMARK    6  A    between atoms: _15  and  _16
REMARK    7  A    between atoms: _15  and  _18
REMARK    8  A    between atoms: _18  and  _19
REMARK    9  A    between atoms: _19  and  _20
REMARK   10  A    between atoms: _26  and  _27
REMARK   11  A    between atoms: _32  and  _34
REMARK   12  A    between atoms: _34  and  _35
REMARK   13  A    between atoms: _34  and  _37
REMARK   14  A    between atoms: _37  and  _38
REMARK   15  A    between atoms: _43  and  _45
REMARK   16  A    between atoms: _45  and  _46
REMARK   17  A    between atoms: _45  and  _48
REMARK   18  A    between atoms: _51  and  _53
REMARK   19  A    between atoms: _53  and  _54
REMARK   20  A    between atoms: _53  and  _56
REMARK   21  A    between atoms: _56  and  _57
REMARK   22  A    between atoms: _61  and  _62
REMARK   23  A    between atoms: _68  and  _69
REMARK   24  A    between atoms: _74  and  _76
REMARK   25  A    between atoms: _76  and  _77
REMARK   26  A    between atoms: _76  and  _79
REMARK   27  A    between atoms: _79  and  _80
REMARK   28  A    between atoms: _90  and  _92
REMARK   29  A    between atoms: _92  and  _93
REMARK   30  A    between atoms: _92  and  _95
REMARK   31  A    between atoms: _95  and  _96
REMARK   32  A    between atoms: _106  and  _108
REMARK   33  A    between atoms: _108  and  _109
REMARK   34  A    between atoms: _108  and  _111
REMARK   35  A    between atoms: _111  and  _112
REMARK   36  A    between atoms: _112  and  _113
REMARK   37  A    between atoms: _116  and  _118
REMARK   38  A    between atoms: _118  and  _119
REMARK   39  A    between atoms: _118  and  _121
REMARK   40  A    between atoms: _121  and  _122
REMARK   41  A    between atoms: _122  and  _123
REMARK   42  A    between atoms: _123  and  _124
REMARK   43  A    between atoms: _133  and  _135
REMARK   44  A    between atoms: _135  and  _136
REMARK   45  A    between atoms: _135  and  _138
REMARK   46  A    between atoms: _138  and  _139
REMARK   47  A    between atoms: _144  and  _145
REMARK   48  A    between atoms: _147  and  _149
REMARK   49  A    between atoms: _149  and  _150
REMARK   50  A    between atoms: _149  and  _152
REMARK   51  A    between atoms: _152  and  _153
REMARK   52  A    between atoms: _153  and  _154
REMARK   53  A    between atoms: _160  and  _161
REMARK   54  A    between atoms: _166  and  _168
REMARK   55  A    between atoms: _168  and  _169
REMARK   56  A    between atoms: _168  and  _171
REMARK   57  A    between atoms: _171  and  _172
REMARK   58  A    between atoms: _175  and  _177
REMARK   59  A    between atoms: _177  and  _178
REMARK   60  A    between atoms: _181  and  _183
REMARK   61  A    between atoms: _183  and  _184
REMARK   62  A    between atoms: _183  and  _186
REMARK   63  A    between atoms: _189  and  _191
REMARK   64  A    between atoms: _191  and  _192
REMARK   65  A    between atoms: _191  and  _194
REMARK   66  A    between atoms: _194  and  _195
REMARK   67  A    between atoms: _198  and  _200
REMARK   68  A    between atoms: _200  and  _201
REMARK   69  A    between atoms: _200  and  _203
REMARK   70  A    between atoms: _203  and  _204
REMARK   71  A    between atoms: _209  and  _211
REMARK   72  A    between atoms: _211  and  _212
REMARK   73  A    between atoms: _211  and  _214
REMARK   74  A    between atoms: _214  and  _215
REMARK   75  A    between atoms: _220  and  _222
REMARK   76  A    between atoms: _222  and  _223
REMARK   77  A    between atoms: _222  and  _225
REMARK   78  A    between atoms: _225  and  _226
REMARK   79  A    between atoms: _226  and  _227
REMARK   80  A    between atoms: _229  and  _231
REMARK   81  A    between atoms: _231  and  _232
REMARK   82  A    between atoms: _231  and  _234
REMARK   83  A    between atoms: _236  and  _238
REMARK   84  A    between atoms: _238  and  _239
REMARK   85  A    between atoms: _241  and  _243
REMARK   86  A    between atoms: _243  and  _244
REMARK   87  A    between atoms: _243  and  _246
REMARK   88  A    between atoms: _246  and  _247
REMARK   89  A    between atoms: _252  and  _254
REMARK   90  A    between atoms: _254  and  _255
REMARK   91  A    between atoms: _258  and  _260
REMARK   92  A    between atoms: _260  and  _261
REMARK   93  A    between atoms: _260  and  _263
REMARK   94  A    between atoms: _266  and  _268
REMARK   95  A    between atoms: _268  and  _269
REMARK   96  A    between atoms: _268  and  _271
REMARK   97  A    between atoms: _271  and  _272
REMARK   98  A    between atoms: _275  and  _277
REMARK   99  A    between atoms: _277  and  _278
REMARK  100  A    between atoms: _277  and  _280
REMARK  101  A    between atoms: _280  and  _281
REMARK  102  A    between atoms: _284  and  _286
REMARK  103  A    between atoms: _286  and  _287
REMARK  104  A    between atoms: _286  and  _289
REMARK  105  A    between atoms: _289  and  _290
REMARK  106  A    between atoms: _295  and  _296
REMARK  107  A    between atoms: _298  and  _300
REMARK  108  A    between atoms: _300  and  _301
REMARK  109  A    between atoms: _300  and  _303
REMARK  110  A    between atoms: _306  and  _308
REMARK  111  A    between atoms: _308  and  _309
REMARK  112  A    between atoms: _308  and  _311
REMARK  113  A    between atoms: _311  and  _312
REMARK  114  A    between atoms: _312  and  _313
REMARK  115  A    between atoms: _313  and  _314
REMARK  116  A    between atoms: _323  and  _325
REMARK  117  A    between atoms: _325  and  _326
REMARK  118  A    between atoms: _325  and  _328
REMARK  119  A    between atoms: _328  and  _329
REMARK  120  A    between atoms: _332  and  _334
REMARK  121  A    between atoms: _334  and  _335
REMARK  122  A    between atoms: _334  and  _337
REMARK  123  A    between atoms: _337  and  _338
REMARK  124  A    between atoms: _341  and  _343
REMARK  125  A    between atoms: _343  and  _344
REMARK  126  A    between atoms: _346  and  _348
REMARK  127  A    between atoms: _348  and  _349
REMARK  128  A    between atoms: _348  and  _351
REMARK  129  A    between atoms: _351  and  _352
REMARK  130  A    between atoms: _355  and  _357
REMARK  131  A    between atoms: _357  and  _358
REMARK  132  A    between atoms: _357  and  _360
REMARK  133  A    between atoms: _360  and  _361
REMARK  134  A    between atoms: _364  and  _366
REMARK  135  A    between atoms: _366  and  _367
REMARK  136  A    between atoms: _366  and  _369
REMARK  137  A    between atoms: _369  and  _370
REMARK  138  A    between atoms: _370  and  _371
REMARK  139  A    between atoms: _371  and  _372
REMARK  140  A    between atoms: _381  and  _383
REMARK  141  A    between atoms: _383  and  _384
REMARK  142  A    between atoms: _383  and  _386
REMARK  143  A    between atoms: _386  and  _387
REMARK  144  A    between atoms: _390  and  _392
REMARK  145  A    between atoms: _392  and  _393
REMARK  146  A    between atoms: _392  and  _395
REMARK  147  A    between atoms: _395  and  _396
REMARK  148  A    between atoms: _399  and  _401
REMARK  149  A    between atoms: _401  and  _402
REMARK  150  A    between atoms: _405  and  _407
REMARK  151  A    between atoms: _407  and  _408
REMARK  152  A    between atoms: _407  and  _410
REMARK  153  A    between atoms: _410  and  _411
REMARK  154  A    between atoms: _413  and  _415
REMARK  155  A    between atoms: _415  and  _416
REMARK  156  A    between atoms: _415  and  _418
REMARK  157  A    between atoms: _418  and  _419
REMARK  158  A    between atoms: _419  and  _420
REMARK  159  A    between atoms: _420  and  _421
REMARK  160  A    between atoms: _421  and  _422
REMARK  161  A    between atoms: _426  and  _428
REMARK  162  A    between atoms: _428  and  _429
REMARK  163  A    between atoms: _428  and  _431
REMARK  164  A    between atoms: _431  and  _432
REMARK  165  A    between atoms: _437  and  _439
REMARK  166  A    between atoms: _439  and  _440
REMARK  167  A    between atoms: _439  and  _442
REMARK  168  A    between atoms: _442  and  _443
REMARK  169  A    between atoms: _443  and  _444
REMARK  170  A    between atoms: _447  and  _449
REMARK  171  A    between atoms: _449  and  _450
REMARK  172  A    between atoms: _449  and  _452
REMARK  173  A    between atoms: _455  and  _457
REMARK  174  A    between atoms: _457  and  _458
REMARK  175  A    between atoms: _457  and  _460
REMARK  176  A    between atoms: _460  and  _461
REMARK  177  A    between atoms: _464  and  _466
REMARK  178  A    between atoms: _466  and  _467
REMARK  179  A    between atoms: _466  and  _469
REMARK  180  A    between atoms: _469  and  _470
REMARK  181  A    between atoms: _473  and  _475
REMARK  182  A    between atoms: _475  and  _476
REMARK  183  A    between atoms: _475  and  _478
REMARK  184  A    between atoms: _478  and  _479
REMARK  185  A    between atoms: _482  and  _484
REMARK  186  A    between atoms: _484  and  _485
REMARK  187  A    between atoms: _487  and  _489
REMARK  188  A    between atoms: _489  and  _490
REMARK  189  A    between atoms: _492  and  _494
REMARK  190  A    between atoms: _494  and  _495
REMARK  191  A    between atoms: _494  and  _497
REMARK  192  A    between atoms: _497  and  _498
REMARK  193  A    between atoms: _498  and  _499
REMARK  194  A    between atoms: _502  and  _504
REMARK  195  A    between atoms: _504  and  _505
REMARK  196  A    between atoms: _504  and  _507
REMARK  197  A    between atoms: _507  and  _508
REMARK  198  A    between atoms: _511  and  _513
REMARK  199  A    between atoms: _513  and  _514
REMARK  200  A    between atoms: _513  and  _516
REMARK  201  A    between atoms: _516  and  _517
REMARK  202  A    between atoms: _523  and  _525
REMARK  203  A    between atoms: _525  and  _526
REMARK  204  A    between atoms: _525  and  _528
REMARK  205  A    between atoms: _528  and  _529
REMARK  206  A    between atoms: _534  and  _536
REMARK  207  A    between atoms: _536  and  _537
REMARK  208  A    between atoms: _536  and  _539
REMARK  209  A    between atoms: _539  and  _540
REMARK  210  A    between atoms: _545  and  _547
REMARK  211  A    between atoms: _547  and  _548
REMARK  212  A    between atoms: _547  and  _550
REMARK  213  A    between atoms: _550  and  _551
REMARK  214  A    between atoms: _554  and  _556
REMARK  215  A    between atoms: _556  and  _557
REMARK  216  A    between atoms: _556  and  _559
REMARK  217  A    between atoms: _559  and  _560
REMARK  218  A    between atoms: _565  and  _567
REMARK  219  A    between atoms: _567  and  _568
REMARK  220  A    between atoms: _567  and  _570
REMARK  221  A    between atoms: _570  and  _571
REMARK  222  A    between atoms: _571  and  _572
REMARK  223  A    between atoms: _572  and  _573
REMARK  224  A    between atoms: _582  and  _584
REMARK  225  A    between atoms: _584  and  _585
REMARK  226  A    between atoms: _587  and  _589
REMARK  227  A    between atoms: _589  and  _590
REMARK  228  A    between atoms: _589  and  _592
REMARK  229  A    between atoms: _592  and  _593
REMARK  230  A    between atoms: _598  and  _600
REMARK  231  A    between atoms: _600  and  _601
REMARK  232  A    between atoms: _603  and  _605
REMARK  233  A    between atoms: _605  and  _606
REMARK  234  A    between atoms: _609  and  _611
REMARK  235  A    between atoms: _611  and  _612
REMARK  236  A    between atoms: _614  and  _616
REMARK  237  A    between atoms: _616  and  _617
REMARK  238  A    between atoms: _619  and  _621
REMARK  239  A    between atoms: _621  and  _622
REMARK  240  A    between atoms: _621  and  _624
REMARK  241  A    between atoms: _624  and  _625
REMARK  242  A    between atoms: _625  and  _626
REMARK  243  A    between atoms: _626  and  _627
REMARK  244  A    between atoms: _636  and  _638
REMARK  245  A    between atoms: _638  and  _639
REMARK  246  A    between atoms: _638  and  _641
REMARK  247  A    between atoms: _641  and  _642
REMARK  248  A    between atoms: _645  and  _647
REMARK  249  A    between atoms: _647  and  _648
REMARK  250  A    between atoms: _647  and  _650
REMARK  251  A    between atoms: _650  and  _651
REMARK                            x       y       z     vdW  Elec       q    Type
REMARK                         _______ _______ _______ _____ _____    ______ ____
ROOT
ATOM      1  N   PRO A   1      22.464  19.051  31.534  0.00  0.00    -0.212 NA
ATOM      2  CD  PRO A   1      21.051  18.929  31.967  0.00  0.00    +0.089 C 
ATOM      3  CG  PRO A   1      20.707  20.324  32.364  0.00  0.00    +0.021 C 
ATOM      4  CB  PRO A   1      21.438  21.106  31.321  0.00  0.00    +0.027 C 
ATOM      5  CA  PRO A   1      22.788  20.463  31.273  0.00  0.00    +0.137 C 
ENDROOT
BRANCH   5   6
ATOM      6  C   PRO A   1      23.741  21.056  32.334  0.00  0.00    +0.224 C 
ATOM      7  O   PRO A   1      24.080  20.364  33.307  0.00  0.00    -0.287 OA
ENDBRANCH   5   6
TORSDOF 1
REMARK  Name = ../refined-set-2016/1xd0/1xd0_pocket.pdb
REMARK  251 active torsions:
REMARK  status: ('A' for Active; 'I' for Inactive)
REMARK    1  A    between atoms: _1  and  _3
REMARK    2  A    between atoms: _3  and  _4
REMARK    3  A    between atoms: _3  and  _6
REMARK    4  A    between atoms: _6  and  _7
REMARK    5  A    between atoms: _13  and  _15
REMARK    6  A    between atoms: _15  and  _16
REMARK    7  A    between atoms: _15  and  _18
REMARK    8  A    between atoms: _18  and  _19
REMARK    9  A    between atoms: _19  and  _20
REMARK   10  A    between atoms: _26  and  _27
REMARK   11  A    between atoms: _32  and  _34
REMARK   12  A    between atoms: _34  and  _35
REMARK   13  A    between atoms: _34  and  _37
REMARK   14  A    between atoms: _37  and  _38
REMARK   15  A    between atoms: _43  and  _45
REMARK   16  A    between atoms: _45  and  _46
REMARK   17  A    between atoms: _45  and  _48
REMARK   18  A    between atoms: _51  and  _53
REMARK   19  A    between atoms: _53  and  _54
REMARK   20  A    between atoms: _53  and  _56
REMARK   21  A    between atoms: _56  and  _57
REMARK   22  A    between atoms: _61  and  _62
REMARK   23  A    between atoms: _68  and  _69
REMARK   24  A    between atoms: _74  and  _76
REMARK   25  A    between atoms: _76  and  _77
REMARK   26  A    between atoms: _76  and  _79
REMARK   27  A    between atoms: _79  and  _80
REMARK   28  A    between atoms: _90  and  _92
REMARK   29  A    between atoms: _92  and  _93
REMARK   30  A    between atoms: _92  and  _95
REMARK   31  A    between atoms: _95  and  _96
REMARK   32  A    between atoms: _106  and  _108
REMARK   33  A    between atoms: _108  and  _109
REMARK   34  A    between atoms: _108  and  _111
REMARK   35  A    between atoms: _111  and  _112
REMARK   36  A    between atoms: _112  and  _113
REMARK   37  A    between atoms: _116  and  _118
REMARK   38  A    between atoms: _118  and  _119
REMARK   39  A    between atoms: _118  and  _121
REMARK   40  A    between atoms: _121  and  _122
REMARK   41  A    between atoms: _122  and  _123
REMARK   42  A    between atoms: _123  and  _124
REMARK   43  A    between atoms: _133  and  _135
REMARK   44  A    between atoms: _135  and  _136
REMARK   45  A    between atoms: _135  and  _138
REMARK   46  A    between atoms: _138  and  _139
REMARK   47  A    between atoms: _144  and  _145
REMARK   48  A    between atoms: _147  and  _149
REMARK   49  A    between atoms: _149  and  _150
REMARK   50  A    between atoms: _149  and  _152
REMARK   51  A    between atoms: _152  and  _153
REMARK   52  A    between atoms: _153  and  _154
REMARK   53  A    between atoms: _160  and  _161
REMARK   54  A    between atoms: _166  and  _168
REMARK   55  A    between atoms: _168  and  _169
REMARK   56  A    between atoms: _168  and  _171
REMARK   57  A    between atoms: _171  and  _172
REMARK   58  A    between atoms: _175  and  _177
REMARK   59  A    between atoms: _177  and  _178
REMARK   60  A    between atoms: _181  and  _183
REMARK   61  A    between atoms: _183  and  _184
REMARK   62  A    between atoms: _183  and  _186
REMARK   63  A    between atoms: _189  and  _191
REMARK   64  A    between atoms: _191  and  _192
REMARK   65  A    between atoms: _191  and  _194
REMARK   66  A    between atoms: _194  and  _195
REMARK   67  A    between atoms: _198  and  _200
REMARK   68  A    between atoms: _200  and  _201
REMARK   69  A    between atoms: _200  and  _203
REMARK   70  A    between atoms: _203  and  _204
REMARK   71  A    between atoms: _209  and  _211
REMARK   72  A    between atoms: _211  and  _212
REMARK   73  A    between atoms: _211  and  _214
REMARK   74  A    between atoms: _214  and  _215
REMARK   75  A    between atoms: _220  and  _222
REMARK   76  A    between atoms: _222  and  _223
REMARK   77  A    between atoms: _222  and  _225
REMARK   78  A    between atoms: _225  and  _226
REMARK   79  A    between atoms: _226  and  _227
REMARK   80  A    between atoms: _229  and  _231
REMARK   81  A    between atoms: _231  and  _232
REMARK   82  A    between atoms: _231  and  _234
REMARK   83  A    between atoms: _236  and  _238
REMARK   84  A    between atoms: _238  and  _239
REMARK   85  A    between atoms: _241  and  _243
REMARK   86  A    between atoms: _243  and  _244
REMARK   87  A    between atoms: _243  and  _246
REMARK   88  A    between atoms: _246  and  _247
REMARK   89  A    between atoms: _252  and  _254
REMARK   90  A    between atoms: _254  and  _255
REMARK   91  A    between atoms: _258  and  _260
REMARK   92  A    between atoms: _260  and  _261
REMARK   93  A    between atoms: _260  and  _263
REMARK   94  A    between atoms: _266  and  _268
REMARK   95  A    between atoms: _268  and  _269
REMARK   96  A    between atoms: _268  and  _271
REMARK   97  A    between atoms: _271  and  _272
REMARK   98  A    between atoms: _275  and  _277
REMARK   99  A    between atoms: _277  and  _278
REMARK  100  A    between atoms: _277  and  _280
REMARK  101  A    between atoms: _280  and  _281
REMARK  102  A    between atoms: _284  and  _286
REMARK  103  A    between atoms: _286  and  _287
REMARK  104  A    between atoms: _286  and  _289
REMARK  105  A    between atoms: _289  and  _290
REMARK  106  A    between atoms: _295  and  _296
REMARK  107  A    between atoms: _298  and  _300
REMARK  108  A    between atoms: _300  and  _301
REMARK  109  A    between atoms: _300  and  _303
REMARK  110  A    between atoms: _306  and  _308
REMARK  111  A    between atoms: _308  and  _309
REMARK  112  A    between atoms: _308  and  _311
REMARK  113  A    between atoms: _311  and  _312
REMARK  114  A    between atoms: _312  and  _313
REMARK  115  A    between atoms: _313  and  _314
REMARK  116  A    between atoms: _323  and  _325
REMARK  117  A    between atoms: _325  and  _326
REMARK  118  A    between atoms: _325  and  _328
REMARK  119  A    between atoms: _328  and  _329
REMARK  120  A    between atoms: _332  and  _334
REMARK  121  A    between atoms: _334  and  _335
REMARK  122  A    between atoms: _334  and  _337
REMARK  123  A    between atoms: _337  and  _338
REMARK  124  A    between atoms: _341  and  _343
REMARK  125  A    between atoms: _343  and  _344
REMARK  126  A    between atoms: _346  and  _348
REMARK  127  A    between atoms: _348  and  _349
REMARK  128  A    between atoms: _348  and  _351
REMARK  129  A    between atoms: _351  and  _352
REMARK  130  A    between atoms: _355  and  _357
REMARK  131  A    between atoms: _357  and  _358
REMARK  132  A    between atoms: _357  and  _360
REMARK  133  A    between atoms: _360  and  _361
REMARK  134  A    between atoms: _364  and  _366
REMARK  135  A    between atoms: _366  and  _367
REMARK  136  A    between atoms: _366  and  _369
REMARK  137  A    between atoms: _369  and  _370
REMARK  138  A    between atoms: _370  and  _371
REMARK  139  A    between atoms: _371  and  _372
REMARK  140  A    between atoms: _381  and  _383
REMARK  141  A    between atoms: _383  and  _384
REMARK  142  A    between atoms: _383  and  _386
REMARK  143  A    between atoms: _386  and  _387
REMARK  144  A    between atoms: _390  and  _392
REMARK  145  A    between atoms: _392  and  _393
REMARK  146  A    between atoms: _392  and  _395
REMARK  147  A    between atoms: _395  and  _396
REMARK  148  A    between atoms: _399  and  _401
REMARK  149  A    between atoms: _401  and  _402
REMARK  150  A    between atoms: _405  and  _407
REMARK  151  A    between atoms: _407  and  _408
REMARK  152  A    between atoms: _407  and  _410
REMARK  153  A    between atoms: _410  and  _411
REMARK  154  A    between atoms: _413  and  _415
REMARK  155  A    between atoms: _415  and  _416
REMARK  156  A    between atoms: _415  and  _418
REMARK  157  A    between atoms: _418  and  _419
REMARK  158  A    between atoms: _419  and  _420
REMARK  159  A    between atoms: _420  and  _421
REMARK  160  A    between atoms: _421  and  _422
REMARK  161  A    between atoms: _426  and  _428
REMARK  162  A    between atoms: _428  and  _429
REMARK  163  A    between atoms: _428  and  _431
REMARK  164  A    between atoms: _431  and  _432
REMARK  165  A    between atoms: _437  and  _439
REMARK  166  A    between atoms: _439  and  _440
REMARK  167  A    between atoms: _439  and  _442
REMARK  168  A    between atoms: _442  and  _443
REMARK  169  A    between atoms: _443  and  _444
REMARK  170  A    between atoms: _447  and  _449
REMARK  171  A    between atoms: _449  and  _450
REMARK  172  A    between atoms: _449  and  _452
REMARK  173  A    between atoms: _455  and  _457
REMARK  174  A    between atoms: _457  and  _458
REMARK  175  A    between atoms: _457  and  _460
REMARK  176  A    between atoms: _460  and  _461
REMARK  177  A    between atoms: _464  and  _466
REMARK  178  A    between atoms: _466  and  _467
REMARK  179  A    between atoms: _466  and  _469
REMARK  180  A    between atoms: _469  and  _470
REMARK  181  A    between atoms: _473  and  _475
REMARK  182  A    between atoms: _475  and  _476
REMARK  183  A    between atoms: _475  and  _478
REMARK  184  A    between atoms: _478  and  _479
REMARK  185  A    between atoms: _482  and  _484
REMARK  186  A    between atoms: _484  and  _485
REMARK  187  A    between atoms: _487  and  _489
REMARK  188  A    between atoms: _489  and  _490
REMARK  189  A    between atoms: _492  and  _494
REMARK  190  A    between atoms: _494  and  _495
REMARK  191  A    between atoms: _494  and  _497
REMARK  192  A    between atoms: _497  and  _498
REMARK  193  A    between atoms: _498  and  _499
REMARK  194  A    between atoms: _502  and  _504
REMARK  195  A    between atoms: _504  and  _505
REMARK  196  A    between atoms: _504  and  _507
REMARK  197  A    between atoms: _507  and  _508
REMARK  198  A    between atoms: _511  and  _513
REMARK  199  A    between atoms: _513  and  _514
REMARK  200  A    between atoms: _513  and  _516
REMARK  201  A    between atoms: _516  and  _517
REMARK  202  A    between atoms: _523  and  _525
REMARK  203  A    between atoms: _525  and  _526
REMARK  204  A    between atoms: _525  and  _528
REMARK  205  A    between atoms: _528  and  _529
REMARK  206  A    between atoms: _534  and  _536
REMARK  207  A    between atoms: _536  and  _537
REMARK  208  A    between atoms: _536  and  _539
REMARK  209  A    between atoms: _539  and  _540
REMARK  210  A    between atoms: _545  and  _547
REMARK  211  A    between atoms: _547  and  _548
REMARK  212  A    between atoms: _547  and  _550
REMARK  213  A    between atoms: _550  and  _551
REMARK  214  A    between atoms: _554  and  _556
REMARK  215  A    between atoms: _556  and  _557
REMARK  216  A    between atoms: _556  and  _559
REMARK  217  A    between atoms: _559  and  _560
REMARK  218  A    between atoms: _565  and  _567
REMARK  219  A    between atoms: _567  and  _568
REMARK  220  A    between atoms: _567  and  _570
REMARK  221  A    between atoms: _570  and  _571
REMARK  222  A    between atoms: _571  and  _572
REMARK  223  A    between atoms: _572  and  _573
REMARK  224  A    between atoms: _582  and  _584
REMARK  225  A    between atoms: _584  and  _585
REMARK  226  A    between atoms: _587  and  _589
REMARK  227  A    between atoms: _589  and  _590
REMARK  228  A    between atoms: _589  and  _592
REMARK  229  A    between atoms: _592  and  _593
REMARK  230  A    between atoms: _598  and  _600
REMARK  231  A    between atoms: _600  and  _601
REMARK  232  A    between atoms: _603  and  _605
REMARK  233  A    between atoms: _605  and  _606
REMARK  234  A    between atoms: _609  and  _611
REMARK  235  A    between atoms: _611  and  _612
REMARK  236  A    between atoms: _614  and  _616
REMARK  237  A    between atoms: _616  and  _617
REMARK  238  A    between atoms: _619  and  _621
REMARK  239  A    between atoms: _621  and  _622
REMARK  240  A    between atoms: _621  and  _624
REMARK  241  A    between atoms: _624  and  _625
REMARK  242  A    between atoms: _625  and  _626
REMARK  243  A    between atoms: _626  and  _627
REMARK  244  A    between atoms: _636  and  _638
REMARK  245  A    between atoms: _638  and  _639
REMARK  246  A    between atoms: _638  and  _641
REMARK  247  A    between atoms: _641  and  _642
REMARK  248  A    between atoms: _645  and  _647
REMARK  249  A    between atoms: _647  and  _648
REMARK  250  A    between atoms: _647  and  _650
REMARK  251  A    between atoms: _650  and  _651
REMARK                            x       y       z     vdW  Elec       q    Type
REMARK                         _______ _______ _______ _____ _____    ______ ____
ROOT
ATOM      1  C   GLU A   4      21.268  18.659  42.254  0.00  0.00    +0.241 C 
ATOM      2  N   ARG A   5      20.760  19.683  42.945  0.00  0.00    -0.297 N 
ATOM      3  H   ARG A   5      20.350  20.484  42.424  0.00  0.00    +0.150 HD
ATOM      4  O   GLU A   4      21.703  17.635  42.776  0.00  0.00    -0.273 OA
ENDROOT
BRANCH   1   5
ATOM      5  CA  GLU A   4      21.178  18.776  40.731  0.00  0.00    +0.149 C 
BRANCH   5   8
ATOM      6  C   TRP A   3      18.846  19.398  40.638  0.00  0.00    +0.241 C 
ATOM      7  O   TRP A   3      18.515  18.341  41.165  0.00  0.00    -0.273 OA
ATOM      8  N   GLU A   4      20.113  19.704  40.357  0.00  0.00    -0.297 N 
ATOM      9  H   GLU A   4      20.342  20.597  39.875  0.00  0.00    +0.150 HD
BRANCH   6  10
ATOM     10  CA  TRP A   3      17.790  20.397  40.277  0.00  0.00    +0.153 C 
BRANCH  10  13
ATOM     11  C   TRP A   2      18.795  22.596  40.598  0.00  0.00    +0.241 C 
ATOM     12  O   TRP A   2      19.125  22.343  41.750  0.00  0.00    -0.273 OA
ATOM     13  N   TRP A   3      18.191  21.712  39.798  0.00  0.00    -0.297 N 
ATOM     14  H   TRP A   3      18.003  21.970  38.808  0.00  0.00    +0.150 HD
BRANCH  11  15
ATOM     15  CA  TRP A   2      19.132  23.955  39.970  0.00  0.00    +0.153 C 
BRANCH  15  18
ATOM     16  C   PRO A   1      20.608  23.012  38.305  0.00  0.00    +0.239 C 
ATOM     17  O   PRO A   1      21.289  22.460  39.174  0.00  0.00    -0.274 OA
ATOM     18  N   TRP A   2      19.559  23.777  38.586  0.00  0.00    -0.297 N 
ATOM     19  H   TRP A   2      19.041  24.250  37.818  0.00  0.00    +0.150 HD
BRANCH  16  21
ATOM     20  N   PRO A   1      22.370  22.478  36.666  0.00  0.00    -0.210 NA
ATOM     21  CA  PRO A   1      20.971  22.854  36.842  0.00  0.00    +0.149 C 
ATOM     22  CB  PRO A   1      20.242  21.678  36.213  0.00  0.00    +0.028 C 
ATOM     23  CG  PRO A   1      21.121  20.528  36.556  0.00  0.00    +0.021 C 
ATOM     24  CD  PRO A   1      22.462  21.060  36.258  0.00  0.00    +0.089 C 
ENDBRANCH  16  21
ENDBRANCH  15  18
BRANCH  15  25
ATOM     25  CB  TRP A   2      17.924  24.894  40.046  0.00  0.00    +0.057 C 
BRANCH  25  26
ATOM     26  CG  TRP A   2      16.694  24.397  39.321  0.00  0.00    -0.002 A 
ATOM     27  CD2 TRP A   2      15.659  23.560  39.853  0.00  0.00    +0.013 A 
ATOM     28  CE3 TRP A   2      15.398  23.011  41.135  0.00  0.00    +0.001 A 
ATOM     29  CZ3 TRP A   2      14.267  22.183  41.306  0.00  0.00    +0.000 A 
ATOM     30  CH2 TRP A   2      13.385  21.925  40.215  0.00  0.00    +0.001 A 
ATOM     31  CZ2 TRP A   2      13.621  22.456  38.954  0.00  0.00    +0.017 A 
ATOM     32  CE2 TRP A   2      14.762  23.281  38.791  0.00  0.00    +0.056 A 
ATOM     33  NE1 TRP A   2      15.243  23.922  37.677  0.00  0.00    -0.352 N 
ATOM     34  HE1 TRP A   2      14.806  23.903  36.733  0.00  0.00    +0.166 HD
ATOM     35  CD1 TRP A   2      16.394  24.592  38.009  0.00  0.00    +0.068 A 
ENDBRANCH  25  26
ENDBRANCH  15  25
ENDBRANCH  11  15
ENDBRANCH  10  13
BRANCH  10  36
ATOM     36  CB  TRP A   3      16.686  19.767  39.417  0.00  0.00    +0.057 C 
BRANCH  36  37
ATOM     37  CG  TRP A   3      16.919  19.729  37.941  0.00  0.00    -0.002 A 
ATOM     38  CD2 TRP A   3      17.765  18.830  37.223  0.00  0.00    +0.013 A 
ATOM     39  CE3 TRP A   3      18.681  17.817  37.607  0.00  0.00    +0.001 A 
ATOM     40  CZ3 TRP A   3      19.376  17.102  36.607  0.00  0.00    +0.000 A 
ATOM     41  CH2 TRP A   3      19.172  17.408  35.222  0.00  0.00    +0.001 A 
ATOM     42  CZ2 TRP A   3      18.276  18.398  34.823  0.00  0.00    +0.017 A 
ATOM     43  CE2 TRP A   3      17.592  19.109  35.835  0.00  0.00    +0.056 A 
ATOM     44  NE1 TRP A   3      16.674  20.127  35.738  0.00  0.00    -0.352 N 
ATOM     45  HE1 TRP A   3      16.331  20.550  34.852  0.00  0.00    +0.166 HD
ATOM     46  CD1 TRP A   3      16.284  20.494  37.000  0.00  0.00    +0.068 A 
ENDBRANCH  36  37
ENDBRANCH  10  36
ENDBRANCH   6  10
ENDBRANCH   5   8
BRANCH   5  47
ATOM     47  CB  GLU A   4      22.526  19.195  40.154  0.00  0.00    +0.041 C 
BRANCH  47  48
ATOM     48  CG  GLU A   4      23.151  20.462  40.728  0.00  0.00    +0.116 C 
BRANCH  48  49
ATOM     49  CD  GLU A   4      24.630  20.589  40.420  0.00  0.00    +0.365 C 
ATOM     50  OE2 GLU A   4      25.396  20.969  41.332  0.00  0.00    -0.246 OA
ATOM     51  OE1 GLU A   4      25.036  20.298  39.279  0.00  0.00    -0.246 OA
ENDBRANCH  48  49
ENDBRANCH  47  48
ENDBRANCH   5  47
ENDBRANCH   1   5
BRANCH   2  52
ATOM     52  CA  ARG A   5      20.759  19.719  44.404  0.00  0.00    +0.149 C 
BRANCH  52  53
ATOM     53  C   ARG A   5      19.777  18.764  45.061  0.00  0.00    +0.241 C 
ATOM     54  O   ARG A   5      19.791  18.594  46.282  0.00  0.00    -0.273 OA
ATOM     55  N   TYR A   6      18.930  18.139  44.245  0.00  0.00    -0.297 N 
ATOM     56  H   TYR A   6      18.966  18.340  43.225  0.00  0.00    +0.150 HD
BRANCH  55  57
ATOM     57  CA  TYR A   6      17.956  17.183  44.746  0.00  0.00    +0.153 C 
BRANCH  57  58
ATOM     58  C   TYR A   6      18.388  15.761  44.460  0.00  0.00    +0.241 C 
ATOM     59  O   TYR A   6      17.581  14.829  44.471  0.00  0.00    -0.273 OA
ATOM     60  N   GLN A   7      19.694  15.612  44.238  0.00  0.00    -0.297 N 
ATOM     61  H   GLN A   7      20.300  16.457  44.260  0.00  0.00    +0.150 HD
BRANCH  60  62
ATOM     62  CA  GLN A   7      20.312  14.324  43.966  0.00  0.00    +0.149 C 
BRANCH  62  63
ATOM     63  C   GLN A   7      21.499  14.127  44.911  0.00  0.00    +0.244 C 
ATOM     64  N   PRO A   8      21.225  13.710  46.172  0.00  0.00    -0.273 N 
ATOM     65  CA  PRO A   8      22.236  13.474  47.213  0.00  0.00    +0.140 C 
ATOM     66  CB  PRO A   8      21.386  13.047  48.410  0.00  0.00    +0.030 C 
ATOM     67  CG  PRO A   8      20.119  13.771  48.191  0.00  0.00    +0.024 C 
ATOM     68  CD  PRO A   8      19.878  13.535  46.754  0.00  0.00    +0.094 C 
ATOM     69  O   GLN A   7      22.650  14.362  44.534  0.00  0.00    -0.273 OA
BRANCH  65  70
ATOM     70  C   PRO A   8      23.305  12.419  46.910  0.00  0.00    +0.227 C 
ATOM     71  O   PRO A   8      23.038  11.401  46.255  0.00  0.00    -0.286 OA
ENDBRANCH  65  70
ENDBRANCH  62  63
BRANCH  62  72
ATOM     72  CB  GLN A   7      20.734  14.230  42.498  0.00  0.00    +0.039 C 
BRANCH  72  73
ATOM     73  CG  GLN A   7      19.564  14.135  41.553  0.00  0.00    +0.087 C 
BRANCH  73  74
ATOM     74  CD  GLN A   7      19.928  13.682  40.172  0.00  0.00    +0.219 C 
ATOM     75  OE1 GLN A   7      20.659  12.711  40.000  0.00  0.00    -0.275 OA
ATOM     76  NE2 GLN A   7      19.394  14.369  39.166  0.00  0.00    -0.329 N 
ATOM     77 HE21 GLN A   7      18.780  15.185  39.362  0.00  0.00    +0.145 HD
ATOM     78 HE22 GLN A   7      19.590  14.090  38.184  0.00  0.00    +0.145 HD
ENDBRANCH  73  74
ENDBRANCH  72  73
ENDBRANCH  62  72
ENDBRANCH  60  62
ENDBRANCH  57  58
BRANCH  57  79
ATOM     79  CB  TYR A   6      16.562  17.489  44.200  0.00  0.00    +0.055 C 
BRANCH  79  80
ATOM     80  CG  TYR A   6      16.010  18.742  44.805  0.00  0.00    -0.020 A 
ATOM     81  CD2 TYR A   6      15.354  18.706  46.060  0.00  0.00    -0.001 A 
ATOM     82  CE2 TYR A   6      14.935  19.906  46.699  0.00  0.00    +0.036 A 
ATOM     83  CZ  TYR A   6      15.183  21.140  46.064  0.00  0.00    +0.134 A 
ATOM     84  CE1 TYR A   6      15.826  21.200  44.812  0.00  0.00    +0.036 A 
ATOM     85  CD1 TYR A   6      16.233  19.994  44.187  0.00  0.00    -0.001 A 
BRANCH  83  86
ATOM     86  OH  TYR A   6      14.829  22.304  46.683  0.00  0.00    -0.506 OA
ATOM     87  HH  TYR A   6      15.307  22.376  47.547  0.00  0.00    +0.292 HD
ENDBRANCH  83  86
ENDBRANCH  79  80
ENDBRANCH  57  79
ENDBRANCH  55  57
ENDBRANCH  52  53
BRANCH  52  88
ATOM     88  CB  ARG A   5      20.582  21.142  44.929  0.00  0.00    +0.033 C 
BRANCH  88  89
ATOM     89  CG  ARG A   5      21.697  22.077  44.493  0.00  0.00    +0.045 C 
BRANCH  89  90
ATOM     90  CD  ARG A   5      21.600  23.421  45.160  0.00  0.00    +0.174 C 
BRANCH  90  91
ATOM     91  NE  ARG A   5      22.022  23.422  46.561  0.00  0.00    -0.265 N 
ATOM     92  CZ  ARG A   5      22.491  24.493  47.203  0.00  0.00    +0.342 C 
ATOM     93  NH2 ARG A   5      22.819  24.406  48.486  0.00  0.00    -0.292 N 
ATOM     94 HH21 ARG A   5      22.710  23.503  48.990  0.00  0.00    +0.255 HD
ATOM     95 HH22 ARG A   5      23.185  25.241  48.987  0.00  0.00    +0.255 HD
ATOM     96  NH1 ARG A   5      22.605  25.661  46.580  0.00  0.00    -0.292 N 
ATOM     97 HH11 ARG A   5      22.972  26.489  47.091  0.00  0.00    +0.255 HD
ATOM     98 HH12 ARG A   5      22.327  25.747  45.581  0.00  0.00    +0.255 HD
ATOM     99  HE  ARG A   5      21.952  22.530  47.091  0.00  0.00    +0.259 HD
ENDBRANCH  90  91
ENDBRANCH  89  90
ENDBRANCH  88  89
ENDBRANCH  52  88
ENDBRANCH   2  52
TORSDOF 31
REMARK  Name = ../refined-set-2016/1xd0/1xd0_pocket.pdb
REMARK  251 active torsions:
REMARK  status: ('A' for Active; 'I' for Inactive)
REMARK    1  A    between atoms: _1  and  _3
REMARK    2  A    between atoms: _3  and  _4
REMARK    3  A    between atoms: _3  and  _6
REMARK    4  A    between atoms: _6  and  _7
REMARK    5  A    between atoms: _13  and  _15
REMARK    6  A    between atoms: _15  and  _16
REMARK    7  A    between atoms: _15  and  _18
REMARK    8  A    between atoms: _18  and  _19
REMARK    9  A    between atoms: _19  and  _20
REMARK   10  A    between atoms: _26  and  _27
REMARK   11  A    between atoms: _32  and  _34
REMARK   12  A    between atoms: _34  and  _35
REMARK   13  A    between atoms: _34  and  _37
REMARK   14  A    between atoms: _37  and  _38
REMARK   15  A    between atoms: _43  and  _45
REMARK   16  A    between atoms: _45  and  _46
REMARK   17  A    between atoms: _45  and  _48
REMARK   18  A    between atoms: _51  and  _53
REMARK   19  A    between atoms: _53  and  _54
REMARK   20  A    between atoms: _53  and  _56
REMARK   21  A    between atoms: _56  and  _57
REMARK   22  A    between atoms: _61  and  _62
REMARK   23  A    between atoms: _68  and  _69
REMARK   24  A    between atoms: _74  and  _76
REMARK   25  A    between atoms: _76  and  _77
REMARK   26  A    between atoms: _76  and  _79
REMARK   27  A    between atoms: _79  and  _80
REMARK   28  A    between atoms: _90  and  _92
REMARK   29  A    between atoms: _92  and  _93
REMARK   30  A    between atoms: _92  and  _95
REMARK   31  A    between atoms: _95  and  _96
REMARK   32  A    between atoms: _106  and  _108
REMARK   33  A    between atoms: _108  and  _109
REMARK   34  A    between atoms: _108  and  _111
REMARK   35  A    between atoms: _111  and  _112
REMARK   36  A    between atoms: _112  and  _113
REMARK   37  A    between atoms: _116  and  _118
REMARK   38  A    between atoms: _118  and  _119
REMARK   39  A    between atoms: _118  and  _121
REMARK   40  A    between atoms: _121  and  _122
REMARK   41  A    between atoms: _122  and  _123
REMARK   42  A    between atoms: _123  and  _124
REMARK   43  A    between atoms: _133  and  _135
REMARK   44  A    between atoms: _135  and  _136
REMARK   45  A    between atoms: _135  and  _138
REMARK   46  A    between atoms: _138  and  _139
REMARK   47  A    between atoms: _144  and  _145
REMARK   48  A    between atoms: _147  and  _149
REMARK   49  A    between atoms: _149  and  _150
REMARK   50  A    between atoms: _149  and  _152
REMARK   51  A    between atoms: _152  and  _153
REMARK   52  A    between atoms: _153  and  _154
REMARK   53  A    between atoms: _160  and  _161
REMARK   54  A    between atoms: _166  and  _168
REMARK   55  A    between atoms: _168  and  _169
REMARK   56  A    between atoms: _168  and  _171
REMARK   57  A    between atoms: _171  and  _172
REMARK   58  A    between atoms: _175  and  _177
REMARK   59  A    between atoms: _177  and  _178
REMARK   60  A    between atoms: _181  and  _183
REMARK   61  A    between atoms: _183  and  _184
REMARK   62  A    between atoms: _183  and  _186
REMARK   63  A    between atoms: _189  and  _191
REMARK   64  A    between atoms: _191  and  _192
REMARK   65  A    between atoms: _191  and  _194
REMARK   66  A    between atoms: _194  and  _195
REMARK   67  A    between atoms: _198  and  _200
REMARK   68  A    between atoms: _200  and  _201
REMARK   69  A    between atoms: _200  and  _203
REMARK   70  A    between atoms: _203  and  _204
REMARK   71  A    between atoms: _209  and  _211
REMARK   72  A    between atoms: _211  and  _212
REMARK   73  A    between atoms: _211  and  _214
REMARK   74  A    between atoms: _214  and  _215
REMARK   75  A    between atoms: _220  and  _222
REMARK   76  A    between atoms: _222  and  _223
REMARK   77  A    between atoms: _222  and  _225
REMARK   78  A    between atoms: _225  and  _226
REMARK   79  A    between atoms: _226  and  _227
REMARK   80  A    between atoms: _229  and  _231
REMARK   81  A    between atoms: _231  and  _232
REMARK   82  A    between atoms: _231  and  _234
REMARK   83  A    between atoms: _236  and  _238
REMARK   84  A    between atoms: _238  and  _239
REMARK   85  A    between atoms: _241  and  _243
REMARK   86  A    between atoms: _243  and  _244
REMARK   87  A    between atoms: _243  and  _246
REMARK   88  A    between atoms: _246  and  _247
REMARK   89  A    between atoms: _252  and  _254
REMARK   90  A    between atoms: _254  and  _255
REMARK   91  A    between atoms: _258  and  _260
REMARK   92  A    between atoms: _260  and  _261
REMARK   93  A    between atoms: _260  and  _263
REMARK   94  A    between atoms: _266  and  _268
REMARK   95  A    between atoms: _268  and  _269
REMARK   96  A    between atoms: _268  and  _271
REMARK   97  A    between atoms: _271  and  _272
REMARK   98  A    between atoms: _275  and  _277
REMARK   99  A    between atoms: _277  and  _278
REMARK  100  A    between atoms: _277  and  _280
REMARK  101  A    between atoms: _280  and  _281
REMARK  102  A    between atoms: _284  and  _286
REMARK  103  A    between atoms: _286  and  _287
REMARK  104  A    between atoms: _286  and  _289
REMARK  105  A    between atoms: _289  and  _290
REMARK  106  A    between atoms: _295  and  _296
REMARK  107  A    between atoms: _298  and  _300
REMARK  108  A    between atoms: _300  and  _301
REMARK  109  A    between atoms: _300  and  _303
REMARK  110  A    between atoms: _306  and  _308
REMARK  111  A    between atoms: _308  and  _309
REMARK  112  A    between atoms: _308  and  _311
REMARK  113  A    between atoms: _311  and  _312
REMARK  114  A    between atoms: _312  and  _313
REMARK  115  A    between atoms: _313  and  _314
REMARK  116  A    between atoms: _323  and  _325
REMARK  117  A    between atoms: _325  and  _326
REMARK  118  A    between atoms: _325  and  _328
REMARK  119  A    between atoms: _328  and  _329
REMARK  120  A    between atoms: _332  and  _334
REMARK  121  A    between atoms: _334  and  _335
REMARK  122  A    between atoms: _334  and  _337
REMARK  123  A    between atoms: _337  and  _338
REMARK  124  A    between atoms: _341  and  _343
REMARK  125  A    between atoms: _343  and  _344
REMARK  126  A    between atoms: _346  and  _348
REMARK  127  A    between atoms: _348  and  _349
REMARK  128  A    between atoms: _348  and  _351
REMARK  129  A    between atoms: _351  and  _352
REMARK  130  A    between atoms: _355  and  _357
REMARK  131  A    between atoms: _357  and  _358
REMARK  132  A    between atoms: _357  and  _360
REMARK  133  A    between atoms: _360  and  _361
REMARK  134  A    between atoms: _364  and  _366
REMARK  135  A    between atoms: _366  and  _367
REMARK  136  A    between atoms: _366  and  _369
REMARK  137  A    between atoms: _369  and  _370
REMARK  138  A    between atoms: _370  and  _371
REMARK  139  A    between atoms: _371  and  _372
REMARK  140  A    between atoms: _381  and  _383
REMARK  141  A    between atoms: _383  and  _384
REMARK  142  A    between atoms: _383  and  _386
REMARK  143  A    between atoms: _386  and  _387
REMARK  144  A    between atoms: _390  and  _392
REMARK  145  A    between atoms: _392  and  _393
REMARK  146  A    between atoms: _392  and  _395
REMARK  147  A    between atoms: _395  and  _396
REMARK  148  A    between atoms: _399  and  _401
REMARK  149  A    between atoms: _401  and  _402
REMARK  150  A    between atoms: _405  and  _407
REMARK  151  A    between atoms: _407  and  _408
REMARK  152  A    between atoms: _407  and  _410
REMARK  153  A    between atoms: _410  and  _411
REMARK  154  A    between atoms: _413  and  _415
REMARK  155  A    between atoms: _415  and  _416
REMARK  156  A    between atoms: _415  and  _418
REMARK  157  A    between atoms: _418  and  _419
REMARK  158  A    between atoms: _419  and  _420
REMARK  159  A    between atoms: _420  and  _421
REMARK  160  A    between atoms: _421  and  _422
REMARK  161  A    between atoms: _426  and  _428
REMARK  162  A    between atoms: _428  and  _429
REMARK  163  A    between atoms: _428  and  _431
REMARK  164  A    between atoms: _431  and  _432
REMARK  165  A    between atoms: _437  and  _439
REMARK  166  A    between atoms: _439  and  _440
REMARK  167  A    between atoms: _439  and  _442
REMARK  168  A    between atoms: _442  and  _443
REMARK  169  A    between atoms: _443  and  _444
REMARK  170  A    between atoms: _447  and  _449
REMARK  171  A    between atoms: _449  and  _450
REMARK  172  A    between atoms: _449  and  _452
REMARK  173  A    between atoms: _455  and  _457
REMARK  174  A    between atoms: _457  and  _458
REMARK  175  A    between atoms: _457  and  _460
REMARK  176  A    between atoms: _460  and  _461
REMARK  177  A    between atoms: _464  and  _466
REMARK  178  A    between atoms: _466  and  _467
REMARK  179  A    between atoms: _466  and  _469
REMARK  180  A    between atoms: _469  and  _470
REMARK  181  A    between atoms: _473  and  _475
REMARK  182  A    between atoms: _475  and  _476
REMARK  183  A    between atoms: _475  and  _478
REMARK  184  A    between atoms: _478  and  _479
REMARK  185  A    between atoms: _482  and  _484
REMARK  186  A    between atoms: _484  and  _485
REMARK  187  A    between atoms: _487  and  _489
REMARK  188  A    between atoms: _489  and  _490
REMARK  189  A    between atoms: _492  and  _494
REMARK  190  A    between atoms: _494  and  _495
REMARK  191  A    between atoms: _494  and  _497
REMARK  192  A    between atoms: _497  and  _498
REMARK  193  A    between atoms: _498  and  _499
REMARK  194  A    between atoms: _502  and  _504
REMARK  195  A    between atoms: _504  and  _505
REMARK  196  A    between atoms: _504  and  _507
REMARK  197  A    between atoms: _507  and  _508
REMARK  198  A    between atoms: _511  and  _513
REMARK  199  A    between atoms: _513  and  _514
REMARK  200  A    between atoms: _513  and  _516
REMARK  201  A    between atoms: _516  and  _517
REMARK  202  A    between atoms: _523  and  _525
REMARK  203  A    between atoms: _525  and  _526
REMARK  204  A    between atoms: _525  and  _528
REMARK  205  A    between atoms: _528  and  _529
REMARK  206  A    between atoms: _534  and  _536
REMARK  207  A    between atoms: _536  and  _537
REMARK  208  A    between atoms: _536  and  _539
REMARK  209  A    between atoms: _539  and  _540
REMARK  210  A    between atoms: _545  and  _547
REMARK  211  A    between atoms: _547  and  _548
REMARK  212  A    between atoms: _547  and  _550
REMARK  213  A    between atoms: _550  and  _551
REMARK  214  A    between atoms: _554  and  _556
REMARK  215  A    between atoms: _556  and  _557
REMARK  216  A    between atoms: _556  and  _559
REMARK  217  A    between atoms: _559  and  _560
REMARK  218  A    between atoms: _565  and  _567
REMARK  219  A    between atoms: _567  and  _568
REMARK  220  A    between atoms: _567  and  _570
REMARK  221  A    between atoms: _570  and  _571
REMARK  222  A    between atoms: _571  and  _572
REMARK  223  A    between atoms: _572  and  _573
REMARK  224  A    between atoms: _582  and  _584
REMARK  225  A    between atoms: _584  and  _585
REMARK  226  A    between atoms: _587  and  _589
REMARK  227  A    between atoms: _589  and  _590
REMARK  228  A    between atoms: _589  and  _592
REMARK  229  A    between atoms: _592  and  _593
REMARK  230  A    between atoms: _598  and  _600
REMARK  231  A    between atoms: _600  and  _601
REMARK  232  A    between atoms: _603  and  _605
REMARK  233  A    between atoms: _605  and  _606
REMARK  234  A    between atoms: _609  and  _611
REMARK  235  A    between atoms: _611  and  _612
REMARK  236  A    between atoms: _614  and  _616
REMARK  237  A    between atoms: _616  and  _617
REMARK  238  A    between atoms: _619  and  _621
REMARK  239  A    between atoms: _621  and  _622
REMARK  240  A    between atoms: _621  and  _624
REMARK  241  A    between atoms: _624  and  _625
REMARK  242  A    between atoms: _625  and  _626
REMARK  243  A    between atoms: _626  and  _627
REMARK  244  A    between atoms: _636  and  _638
REMARK  245  A    between atoms: _638  and  _639
REMARK  246  A    between atoms: _638  and  _641
REMARK  247  A    between atoms: _641  and  _642
REMARK  248  A    between atoms: _645  and  _647
REMARK  249  A    between atoms: _647  and  _648
REMARK  250  A    between atoms: _647  and  _650
REMARK  251  A    between atoms: _650  and  _651
REMARK                            x       y       z     vdW  Elec       q    Type
REMARK                         _______ _______ _______ _____ _____    ______ ____
ROOT
ATOM      1  CA  HIS A   6      16.326   9.194  47.881  0.00  0.00    +0.155 C 
ENDROOT
BRANCH   1   2
ATOM      2  C   HIS A   6      17.742   9.730  47.843  0.00  0.00    +0.241 C 
ATOM      3  O   HIS A   6      18.076  10.692  48.532  0.00  0.00    -0.273 OA
ATOM      4  N   MET A   7      18.539   9.114  46.970  0.00  0.00    -0.297 N 
ATOM      5  H   MET A   7      18.169   8.289  46.457  0.00  0.00    +0.150 HD
BRANCH   4   6
ATOM      6  CA  MET A   7      19.900   9.542  46.702  0.00  0.00    +0.149 C 
BRANCH   6   7
ATOM      7  C   MET A   7      19.816  10.042  45.253  0.00  0.00    +0.241 C 
ATOM      8  O   MET A   7      18.745  10.491  44.837  0.00  0.00    -0.273 OA
ATOM      9  N   CYS A   8      20.885   9.916  44.470  0.00  0.00    -0.296 N 
ATOM     10  H   CYS A   8      21.749   9.473  44.844  0.00  0.00    +0.150 HD
BRANCH   9  11
ATOM     11  CA  CYS A   8      20.856  10.393  43.093  0.00  0.00    +0.160 C 
BRANCH  11  12
ATOM     12  C   CYS A   8      20.198   9.511  42.049  0.00  0.00    +0.242 C 
ATOM     13  O   CYS A   8      19.761   8.406  42.364  0.00  0.00    -0.273 OA
ATOM     14  N   GLY A   9      20.156  10.002  40.804  0.00  0.00    -0.295 N 
ATOM     15  H   GLY A   9      20.546  10.948  40.619  0.00  0.00    +0.150 HD
BRANCH  14  16
ATOM     16  CA  GLY A   9      19.579   9.245  39.702  0.00  0.00    +0.176 C 
BRANCH  16  17
ATOM     17  C   GLY A   9      20.332   7.946  39.464  0.00  0.00    +0.243 C 
ATOM     18  O   GLY A   9      21.567   7.922  39.512  0.00  0.00    -0.273 OA
ATOM     19  N   ASN A  10      19.590   6.862  39.243  0.00  0.00    -0.297 N 
ATOM     20  H   ASN A  10      18.554   6.952  39.243  0.00  0.00    +0.150 HD
BRANCH  19  21
ATOM     21  CA  ASN A  10      20.188   5.550  39.001  0.00  0.00    +0.158 C 
BRANCH  21  22
ATOM     22  C   ASN A  10      21.032   5.475  37.734  0.00  0.00    +0.241 C 
ATOM     23  O   ASN A  10      21.864   4.581  37.596  0.00  0.00    -0.273 OA
ATOM     24  N   ALA A  11      20.789   6.408  36.814  0.00  0.00    -0.297 N 
ATOM     25  H   ALA A  11      20.063   7.127  37.006  0.00  0.00    +0.150 HD
BRANCH  24  26
ATOM     26  CA  ALA A  11      21.508   6.452  35.549  0.00  0.00    +0.149 C 
ATOM     27  CB  ALA A  11      20.578   6.880  34.432  0.00  0.00    +0.031 C 
BRANCH  26  28
ATOM     28  C   ALA A  11      22.761   7.322  35.570  0.00  0.00    +0.241 C 
ATOM     29  N   VAL A  12      23.023   7.975  36.704  0.00  0.00    -0.298 N 
ATOM     30  H   VAL A  12      22.375   7.870  37.511  0.00  0.00    +0.150 HD
ATOM     31  O   ALA A  11      23.486   7.385  34.571  0.00  0.00    -0.273 OA
BRANCH  29  32
ATOM     32  CA  VAL A  12      24.201   8.836  36.841  0.00  0.00    +0.137 C 
BRANCH  32  33
ATOM     33  CB  VAL A  12      24.131   9.699  38.129  0.00  0.00    +0.026 C 
ATOM     34  CG2 VAL A  12      25.409  10.514  38.322  0.00  0.00    +0.002 C 
ATOM     35  CG1 VAL A  12      22.939  10.632  38.075  0.00  0.00    +0.002 C 
ENDBRANCH  32  33
BRANCH  32  36
ATOM     36  C   VAL A  12      25.488   8.005  36.838  0.00  0.00    +0.227 C 
ATOM     37  O   VAL A  12      25.552   6.951  37.471  0.00  0.00    -0.286 OA
ENDBRANCH  32  36
ENDBRANCH  29  32
ENDBRANCH  26  28
ENDBRANCH  24  26
ENDBRANCH  21  22
BRANCH  21  38
ATOM     38  CB  ASN A  10      19.111   4.455  38.983  0.00  0.00    +0.114 C 
BRANCH  38  39
ATOM     39  CG  ASN A  10      18.246   4.501  37.751  0.00  0.00    +0.222 C 
ATOM     40  OD1 ASN A  10      17.454   5.421  37.564  0.00  0.00    -0.275 OA
ATOM     41  ND2 ASN A  10      18.437   3.528  36.869  0.00  0.00    -0.329 N 
ATOM     42 HD21 ASN A  10      19.119   2.769  37.071  0.00  0.00    +0.145 HD
ATOM     43 HD22 ASN A  10      17.905   3.524  35.976  0.00  0.00    +0.145 HD
ENDBRANCH  38  39
ENDBRANCH  21  38
ENDBRANCH  19  21
ENDBRANCH  16  17
ENDBRANCH  14  16
ENDBRANCH  11  12
BRANCH  11  44
ATOM     44  CB  CYS A   8      22.255  10.754  42.649  0.00  0.00    +0.098 C 
ATOM     45  SG  CYS A   8      23.349   9.382  42.381  0.00  0.00    -0.080 S 
ENDBRANCH  11  44
ENDBRANCH   9  11
ENDBRANCH   6   7
BRANCH   6  46
ATOM     46  CB  MET A   7      20.895   8.396  46.896  0.00  0.00    +0.041 C 
BRANCH  46  47
ATOM     47  CG  MET A   7      21.028   7.930  48.347  0.00  0.00    +0.060 C 
BRANCH  47  48
ATOM     48  SD  MET A   7      21.392   9.244  49.541  0.00  0.00    -0.139 S 
ATOM     49  CE  MET A   7      23.134   9.477  49.232  0.00  0.00    +0.069 C 
ENDBRANCH  47  48
ENDBRANCH  46  47
ENDBRANCH   6  46
ENDBRANCH   4   6
ENDBRANCH   1   2
BRANCH   1  52
ATOM     50  C   ASN A   5      14.413   9.167  49.356  0.00  0.00    +0.241 C 
ATOM     51  O   ASN A   5      14.181   7.973  49.132  0.00  0.00    -0.273 OA
ATOM     52  N   HIS A   6      15.450   9.822  48.848  0.00  0.00    -0.297 N 
ATOM     53  H   HIS A   6      15.636  10.800  49.149  0.00  0.00    +0.150 HD
BRANCH  50  54
ATOM     54  CA  ASN A   5      13.506   9.978  50.274  0.00  0.00    +0.158 C 
BRANCH  54  57
ATOM     55  C   ILE A   4      15.023  10.868  51.948  0.00  0.00    +0.241 C 
ATOM     56  O   ILE A   4      15.134   9.759  52.483  0.00  0.00    -0.273 OA
ATOM     57  N   ASN A   5      14.232  11.083  50.898  0.00  0.00    -0.297 N 
ATOM     58  H   ASN A   5      14.130  12.046  50.519  0.00  0.00    +0.150 HD
BRANCH  55  59
ATOM     59  CA  ILE A   4      15.754  12.079  52.533  0.00  0.00    +0.149 C 
BRANCH  59  61
ATOM     60  C   VAL A   3      16.563  14.053  51.339  0.00  0.00    +0.241 C 
ATOM     61  N   ILE A   4      15.558  13.366  51.876  0.00  0.00    -0.297 N 
ATOM     62  H   ILE A   4      14.597  13.761  51.825  0.00  0.00    +0.150 HD
ATOM     63  O   VAL A   3      17.724  13.637  51.281  0.00  0.00    -0.273 OA
BRANCH  60  64
ATOM     64  CA  VAL A   3      16.184  15.423  50.794  0.00  0.00    +0.149 C 
BRANCH  64  67
ATOM     65  C   ALA A   2      15.415  16.828  52.655  0.00  0.00    +0.241 C 
ATOM     66  O   ALA A   2      14.246  16.456  52.547  0.00  0.00    -0.273 OA
ATOM     67  N   VAL A   3      16.405  16.378  51.882  0.00  0.00    -0.297 N 
ATOM     68  H   VAL A   3      17.371  16.719  52.059  0.00  0.00    +0.150 HD
BRANCH  65  69
ATOM     69  CA  ALA A   2      15.812  17.820  53.736  0.00  0.00    +0.149 C 
ATOM     70  CB  ALA A   2      15.393  17.312  55.112  0.00  0.00    +0.031 C 
BRANCH  69  72
ATOM     71  C   ASP A   1      15.970  20.108  52.871  0.00  0.00    +0.239 C 
ATOM     72  N   ALA A   2      15.283  19.165  53.518  0.00  0.00    -0.297 N 
ATOM     73  H   ALA A   2      14.336  19.395  53.881  0.00  0.00    +0.150 HD
ATOM     74  O   ASP A   1      17.104  19.930  52.418  0.00  0.00    -0.274 OA
BRANCH  71  75
ATOM     75  CA  ASP A   1      15.291  21.487  52.764  0.00  0.00    +0.156 C 
BRANCH  75  76
ATOM     76  N   ASP A   1      15.978  22.288  53.762  0.00  0.00    -0.238 NA
ATOM     77  H   ASP A   1      16.757  22.906  53.458  0.00  0.00    +0.142 HD
ENDBRANCH  75  76
BRANCH  75  78
ATOM     78  CB  ASP A   1      15.506  22.095  51.379  0.00  0.00    +0.140 C 
BRANCH  78  79
ATOM     79  CG  ASP A   1      14.584  21.507  50.325  0.00  0.00    +0.367 C 
ATOM     80  OD2 ASP A   1      14.066  20.384  50.507  0.00  0.00    -0.246 OA
ATOM     81  OD1 ASP A   1      14.356  22.189  49.310  0.00  0.00    -0.246 OA
ENDBRANCH  78  79
ENDBRANCH  75  78
ENDBRANCH  71  75
ENDBRANCH  69  72
ENDBRANCH  65  69
ENDBRANCH  64  67
BRANCH  64  82
ATOM     82  CB  VAL A   3      17.031  15.773  49.562  0.00  0.00    +0.027 C 
ATOM     83  CG2 VAL A   3      16.918  17.235  49.246  0.00  0.00    +0.002 C 
ATOM     84  CG1 VAL A   3      16.594  14.941  48.363  0.00  0.00    +0.002 C 
ENDBRANCH  64  82
ENDBRANCH  60  64
ENDBRANCH  59  61
BRANCH  59  85
ATOM     85  CB  ILE A   4      15.387  12.212  54.033  0.00  0.00    +0.027 C 
ATOM     86  CG2 ILE A   4      16.267  13.276  54.702  0.00  0.00    +0.002 C 
BRANCH  85  87
ATOM     87  CG1 ILE A   4      13.904  12.572  54.184  0.00  0.00    +0.002 C 
ATOM     88  CD1 ILE A   4      13.359  12.495  55.587  0.00  0.00    +0.000 C 
ENDBRANCH  85  87
ENDBRANCH  59  85
ENDBRANCH  55  59
ENDBRANCH  54  57
BRANCH  54  89
ATOM     89  CB  ASN A   5      12.294  10.515  49.483  0.00  0.00    +0.114 C 
BRANCH  89  90
ATOM     90  CG  ASN A   5      11.646   9.457  48.580  0.00  0.00    +0.222 C 
ATOM     91  OD1 ASN A   5      11.009   8.516  49.054  0.00  0.00    -0.275 OA
ATOM     92  ND2 ASN A   5      11.881   9.575  47.278  0.00  0.00    -0.329 N 
ATOM     93 HD21 ASN A   5      12.424  10.386  46.919  0.00  0.00    +0.145 HD
ATOM     94 HD22 ASN A   5      11.522   8.856  46.618  0.00  0.00    +0.145 HD
ENDBRANCH  89  90
ENDBRANCH  54  89
ENDBRANCH  50  54
ENDBRANCH   1  52
BRANCH   1  95
ATOM     95  CB  HIS A   6      15.696   9.408  46.498  0.00  0.00    +0.076 C 
BRANCH  95  96
ATOM     96  CG  HIS A   6      15.332  10.831  46.236  0.00  0.00    +0.082 A 
ATOM     97  ND1 HIS A   6      14.092  11.327  46.538  0.00  0.00    -0.227 NA
ATOM     98  CE1 HIS A   6      14.078  12.629  46.282  0.00  0.00    +0.199 A 
ATOM     99  NE2 HIS A   6      15.262  12.977  45.825  0.00  0.00    -0.221 NA
ATOM    100  CD2 HIS A   6      16.073  11.870  45.783  0.00  0.00    +0.115 A 
ENDBRANCH  95  96
ENDBRANCH   1  95
TORSDOF 40
REMARK  Name = ../refined-set-2016/1xd0/1xd0_pocket.pdb
REMARK  251 active torsions:
REMARK  status: ('A' for Active; 'I' for Inactive)
REMARK    1  A    between atoms: _1  and  _3
REMARK    2  A    between atoms: _3  and  _4
REMARK    3  A    between atoms: _3  and  _6
REMARK    4  A    between atoms: _6  and  _7
REMARK    5  A    between atoms: _13  and  _15
REMARK    6  A    between atoms: _15  and  _16
REMARK    7  A    between atoms: _15  and  _18
REMARK    8  A    between atoms: _18  and  _19
REMARK    9  A    between atoms: _19  and  _20
REMARK   10  A    between atoms: _26  and  _27
REMARK   11  A    between atoms: _32  and  _34
REMARK   12  A    between atoms: _34  and  _35
REMARK   13  A    between atoms: _34  and  _37
REMARK   14  A    between atoms: _37  and  _38
REMARK   15  A    between atoms: _43  and  _45
REMARK   16  A    between atoms: _45  and  _46
REMARK   17  A    between atoms: _45  and  _48
REMARK   18  A    between atoms: _51  and  _53
REMARK   19  A    between atoms: _53  and  _54
REMARK   20  A    between atoms: _53  and  _56
REMARK   21  A    between atoms: _56  and  _57
REMARK   22  A    between atoms: _61  and  _62
REMARK   23  A    between atoms: _68  and  _69
REMARK   24  A    between atoms: _74  and  _76
REMARK   25  A    between atoms: _76  and  _77
REMARK   26  A    between atoms: _76  and  _79
REMARK   27  A    between atoms: _79  and  _80
REMARK   28  A    between atoms: _90  and  _92
REMARK   29  A    between atoms: _92  and  _93
REMARK   30  A    between atoms: _92  and  _95
REMARK   31  A    between atoms: _95  and  _96
REMARK   32  A    between atoms: _106  and  _108
REMARK   33  A    between atoms: _108  and  _109
REMARK   34  A    between atoms: _108  and  _111
REMARK   35  A    between atoms: _111  and  _112
REMARK   36  A    between atoms: _112  and  _113
REMARK   37  A    between atoms: _116  and  _118
REMARK   38  A    between atoms: _118  and  _119
REMARK   39  A    between atoms: _118  and  _121
REMARK   40  A    between atoms: _121  and  _122
REMARK   41  A    between atoms: _122  and  _123
REMARK   42  A    between atoms: _123  and  _124
REMARK   43  A    between atoms: _133  and  _135
REMARK   44  A    between atoms: _135  and  _136
REMARK   45  A    between atoms: _135  and  _138
REMARK   46  A    between atoms: _138  and  _139
REMARK   47  A    between atoms: _144  and  _145
REMARK   48  A    between atoms: _147  and  _149
REMARK   49  A    between atoms: _149  and  _150
REMARK   50  A    between atoms: _149  and  _152
REMARK   51  A    between atoms: _152  and  _153
REMARK   52  A    between atoms: _153  and  _154
REMARK   53  A    between atoms: _160  and  _161
REMARK   54  A    between atoms: _166  and  _168
REMARK   55  A    between atoms: _168  and  _169
REMARK   56  A    between atoms: _168  and  _171
REMARK   57  A    between atoms: _171  and  _172
REMARK   58  A    between atoms: _175  and  _177
REMARK   59  A    between atoms: _177  and  _178
REMARK   60  A    between atoms: _181  and  _183
REMARK   61  A    between atoms: _183  and  _184
REMARK   62  A    between atoms: _183  and  _186
REMARK   63  A    between atoms: _189  and  _191
REMARK   64  A    between atoms: _191  and  _192
REMARK   65  A    between atoms: _191  and  _194
REMARK   66  A    between atoms: _194  and  _195
REMARK   67  A    between atoms: _198  and  _200
REMARK   68  A    between atoms: _200  and  _201
REMARK   69  A    between atoms: _200  and  _203
REMARK   70  A    between atoms: _203  and  _204
REMARK   71  A    between atoms: _209  and  _211
REMARK   72  A    between atoms: _211  and  _212
REMARK   73  A    between atoms: _211  and  _214
REMARK   74  A    between atoms: _214  and  _215
REMARK   75  A    between atoms: _220  and  _222
REMARK   76  A    between atoms: _222  and  _223
REMARK   77  A    between atoms: _222  and  _225
REMARK   78  A    between atoms: _225  and  _226
REMARK   79  A    between atoms: _226  and  _227
REMARK   80  A    between atoms: _229  and  _231
REMARK   81  A    between atoms: _231  and  _232
REMARK   82  A    between atoms: _231  and  _234
REMARK   83  A    between atoms: _236  and  _238
REMARK   84  A    between atoms: _238  and  _239
REMARK   85  A    between atoms: _241  and  _243
REMARK   86  A    between atoms: _243  and  _244
REMARK   87  A    between atoms: _243  and  _246
REMARK   88  A    between atoms: _246  and  _247
REMARK   89  A    between atoms: _252  and  _254
REMARK   90  A    between atoms: _254  and  _255
REMARK   91  A    between atoms: _258  and  _260
REMARK   92  A    between atoms: _260  and  _261
REMARK   93  A    between atoms: _260  and  _263
REMARK   94  A    between atoms: _266  and  _268
REMARK   95  A    between atoms: _268  and  _269
REMARK   96  A    between atoms: _268  and  _271
REMARK   97  A    between atoms: _271  and  _272
REMARK   98  A    between atoms: _275  and  _277
REMARK   99  A    between atoms: _277  and  _278
REMARK  100  A    between atoms: _277  and  _280
REMARK  101  A    between atoms: _280  and  _281
REMARK  102  A    between atoms: _284  and  _286
REMARK  103  A    between atoms: _286  and  _287
REMARK  104  A    between atoms: _286  and  _289
REMARK  105  A    between atoms: _289  and  _290
REMARK  106  A    between atoms: _295  and  _296
REMARK  107  A    between atoms: _298  and  _300
REMARK  108  A    between atoms: _300  and  _301
REMARK  109  A    between atoms: _300  and  _303
REMARK  110  A    between atoms: _306  and  _308
REMARK  111  A    between atoms: _308  and  _309
REMARK  112  A    between atoms: _308  and  _311
REMARK  113  A    between atoms: _311  and  _312
REMARK  114  A    between atoms: _312  and  _313
REMARK  115  A    between atoms: _313  and  _314
REMARK  116  A    between atoms: _323  and  _325
REMARK  117  A    between atoms: _325  and  _326
REMARK  118  A    between atoms: _325  and  _328
REMARK  119  A    between atoms: _328  and  _329
REMARK  120  A    between atoms: _332  and  _334
REMARK  121  A    between atoms: _334  and  _335
REMARK  122  A    between atoms: _334  and  _337
REMARK  123  A    between atoms: _337  and  _338
REMARK  124  A    between atoms: _341  and  _343
REMARK  125  A    between atoms: _343  and  _344
REMARK  126  A    between atoms: _346  and  _348
REMARK  127  A    between atoms: _348  and  _349
REMARK  128  A    between atoms: _348  and  _351
REMARK  129  A    between atoms: _351  and  _352
REMARK  130  A    between atoms: _355  and  _357
REMARK  131  A    between atoms: _357  and  _358
REMARK  132  A    between atoms: _357  and  _360
REMARK  133  A    between atoms: _360  and  _361
REMARK  134  A    between atoms: _364  and  _366
REMARK  135  A    between atoms: _366  and  _367
REMARK  136  A    between atoms: _366  and  _369
REMARK  137  A    between atoms: _369  and  _370
REMARK  138  A    between atoms: _370  and  _371
REMARK  139  A    between atoms: _371  and  _372
REMARK  140  A    between atoms: _381  and  _383
REMARK  141  A    between atoms: _383  and  _384
REMARK  142  A    between atoms: _383  and  _386
REMARK  143  A    between atoms: _386  and  _387
REMARK  144  A    between atoms: _390  and  _392
REMARK  145  A    between atoms: _392  and  _393
REMARK  146  A    between atoms: _392  and  _395
REMARK  147  A    between atoms: _395  and  _396
REMARK  148  A    between atoms: _399  and  _401
REMARK  149  A    between atoms: _401  and  _402
REMARK  150  A    between atoms: _405  and  _407
REMARK  151  A    between atoms: _407  and  _408
REMARK  152  A    between atoms: _407  and  _410
REMARK  153  A    between atoms: _410  and  _411
REMARK  154  A    between atoms: _413  and  _415
REMARK  155  A    between atoms: _415  and  _416
REMARK  156  A    between atoms: _415  and  _418
REMARK  157  A    between atoms: _418  and  _419
REMARK  158  A    between atoms: _419  and  _420
REMARK  159  A    between atoms: _420  and  _421
REMARK  160  A    between atoms: _421  and  _422
REMARK  161  A    between atoms: _426  and  _428
REMARK  162  A    between atoms: _428  and  _429
REMARK  163  A    between atoms: _428  and  _431
REMARK  164  A    between atoms: _431  and  _432
REMARK  165  A    between atoms: _437  and  _439
REMARK  166  A    between atoms: _439  and  _440
REMARK  167  A    between atoms: _439  and  _442
REMARK  168  A    between atoms: _442  and  _443
REMARK  169  A    between atoms: _443  and  _444
REMARK  170  A    between atoms: _447  and  _449
REMARK  171  A    between atoms: _449  and  _450
REMARK  172  A    between atoms: _449  and  _452
REMARK  173  A    between atoms: _455  and  _457
REMARK  174  A    between atoms: _457  and  _458
REMARK  175  A    between atoms: _457  and  _460
REMARK  176  A    between atoms: _460  and  _461
REMARK  177  A    between atoms: _464  and  _466
REMARK  178  A    between atoms: _466  and  _467
REMARK  179  A    between atoms: _466  and  _469
REMARK  180  A    between atoms: _469  and  _470
REMARK  181  A    between atoms: _473  and  _475
REMARK  182  A    between atoms: _475  and  _476
REMARK  183  A    between atoms: _475  and  _478
REMARK  184  A    between atoms: _478  and  _479
REMARK  185  A    between atoms: _482  and  _484
REMARK  186  A    between atoms: _484  and  _485
REMARK  187  A    between atoms: _487  and  _489
REMARK  188  A    between atoms: _489  and  _490
REMARK  189  A    between atoms: _492  and  _494
REMARK  190  A    between atoms: _494  and  _495
REMARK  191  A    between atoms: _494  and  _497
REMARK  192  A    between atoms: _497  and  _498
REMARK  193  A    between atoms: _498  and  _499
REMARK  194  A    between atoms: _502  and  _504
REMARK  195  A    between atoms: _504  and  _505
REMARK  196  A    between atoms: _504  and  _507
REMARK  197  A    between atoms: _507  and  _508
REMARK  198  A    between atoms: _511  and  _513
REMARK  199  A    between atoms: _513  and  _514
REMARK  200  A    between atoms: _513  and  _516
REMARK  201  A    between atoms: _516  and  _517
REMARK  202  A    between atoms: _523  and  _525
REMARK  203  A    between atoms: _525  and  _526
REMARK  204  A    between atoms: _525  and  _528
REMARK  205  A    between atoms: _528  and  _529
REMARK  206  A    between atoms: _534  and  _536
REMARK  207  A    between atoms: _536  and  _537
REMARK  208  A    between atoms: _536  and  _539
REMARK  209  A    between atoms: _539  and  _540
REMARK  210  A    between atoms: _545  and  _547
REMARK  211  A    between atoms: _547  and  _548
REMARK  212  A    between atoms: _547  and  _550
REMARK  213  A    between atoms: _550  and  _551
REMARK  214  A    between atoms: _554  and  _556
REMARK  215  A    between atoms: _556  and  _557
REMARK  216  A    between atoms: _556  and  _559
REMARK  217  A    between atoms: _559  and  _560
REMARK  218  A    between atoms: _565  and  _567
REMARK  219  A    between atoms: _567  and  _568
REMARK  220  A    between atoms: _567  and  _570
REMARK  221  A    between atoms: _570  and  _571
REMARK  222  A    between atoms: _571  and  _572
REMARK  223  A    between atoms: _572  and  _573
REMARK  224  A    between atoms: _582  and  _584
REMARK  225  A    between atoms: _584  and  _585
REMARK  226  A    between atoms: _587  and  _589
REMARK  227  A    between atoms: _589  and  _590
REMARK  228  A    between atoms: _589  and  _592
REMARK  229  A    between atoms: _592  and  _593
REMARK  230  A    between atoms: _598  and  _600
REMARK  231  A    between atoms: _600  and  _601
REMARK  232  A    between atoms: _603  and  _605
REMARK  233  A    between atoms: _605  and  _606
REMARK  234  A    between atoms: _609  and  _611
REMARK  235  A    between atoms: _611  and  _612
REMARK  236  A    between atoms: _614  and  _616
REMARK  237  A    between atoms: _616  and  _617
REMARK  238  A    between atoms: _619  and  _621
REMARK  239  A    between atoms: _621  and  _622
REMARK  240  A    between atoms: _621  and  _624
REMARK  241  A    between atoms: _624  and  _625
REMARK  242  A    between atoms: _625  and  _626
REMARK  243  A    between atoms: _626  and  _627
REMARK  244  A    between atoms: _636  and  _638
REMARK  245  A    between atoms: _638  and  _639
REMARK  246  A    between atoms: _638  and  _641
REMARK  247  A    between atoms: _641  and  _642
REMARK  248  A    between atoms: _645  and  _647
REMARK  249  A    between atoms: _647  and  _648
REMARK  250  A    between atoms: _647  and  _650
REMARK  251  A    between atoms: _650  and  _651
REMARK                            x       y       z     vdW  Elec       q    Type
REMARK                         _______ _______ _______ _____ _____    ______ ____
ROOT
ATOM      1  C   ASP A   1       8.669   3.859  38.890  0.00  0.00    +0.239 C 
ATOM      2  N   ILE A   2       8.247   5.021  39.389  0.00  0.00    -0.298 N 
ATOM      3  H   ILE A   2       8.942   5.767  39.592  0.00  0.00    +0.150 HD
ATOM      4  O   ASP A   1       7.919   2.902  38.674  0.00  0.00    -0.274 OA
ENDROOT
BRANCH   1   5
ATOM      5  CA  ASP A   1      10.153   3.747  38.610  0.00  0.00    +0.156 C 
BRANCH   5   6
ATOM      6  N   ASP A   1      10.486   2.360  38.313  0.00  0.00    -0.238 NA
ATOM      7  H   ASP A   1      10.197   1.962  37.397  0.00  0.00    +0.142 HD
ENDBRANCH   5   6
BRANCH   5   8
ATOM      8  CB  ASP A   1      10.522   4.673  37.436  0.00  0.00    +0.140 C 
BRANCH   8   9
ATOM      9  CG  ASP A   1      12.019   4.722  37.162  0.00  0.00    +0.367 C 
ATOM     10  OD2 ASP A   1      12.825   4.503  38.084  0.00  0.00    -0.246 OA
ATOM     11  OD1 ASP A   1      12.391   4.989  36.002  0.00  0.00    -0.246 OA
ENDBRANCH   8   9
ENDBRANCH   5   8
ENDBRANCH   1   5
BRANCH   2  12
ATOM     12  CA  ILE A   2       6.831   5.273  39.658  0.00  0.00    +0.137 C 
BRANCH  12  13
ATOM     13  CB  ILE A   2       6.619   6.566  40.472  0.00  0.00    +0.026 C 
ATOM     14  CG2 ILE A   2       5.115   6.835  40.664  0.00  0.00    +0.002 C 
BRANCH  13  15
ATOM     15  CG1 ILE A   2       7.307   6.446  41.833  0.00  0.00    +0.002 C 
ATOM     16  CD1 ILE A   2       7.210   7.680  42.688  0.00  0.00    +0.000 C 
ENDBRANCH  13  15
ENDBRANCH  12  13
BRANCH  12  17
ATOM     17  C   ILE A   2       6.159   5.415  38.289  0.00  0.00    +0.227 C 
ATOM     18  O   ILE A   2       6.592   6.217  37.461  0.00  0.00    -0.286 OA
ENDBRANCH  12  17
ENDBRANCH   2  12
TORSDOF 8
REMARK  Name = ../refined-set-2016/1xd0/1xd0_pocket.pdb
REMARK  251 active torsions:
REMARK  status: ('A' for Active; 'I' for Inactive)
REMARK    1  A    between atoms: _1  and  _3
REMARK    2  A    between atoms: _3  and  _4
REMARK    3  A    between atoms: _3  and  _6
REMARK    4  A    between atoms: _6  and  _7
REMARK    5  A    between atoms: _13  and  _15
REMARK    6  A    between atoms: _15  and  _16
REMARK    7  A    between atoms: _15  and  _18
REMARK    8  A    between atoms: _18  and  _19
REMARK    9  A    between atoms: _19  and  _20
REMARK   10  A    between atoms: _26  and  _27
REMARK   11  A    between atoms: _32  and  _34
REMARK   12  A    between atoms: _34  and  _35
REMARK   13  A    between atoms: _34  and  _37
REMARK   14  A    between atoms: _37  and  _38
REMARK   15  A    between atoms: _43  and  _45
REMARK   16  A    between atoms: _45  and  _46
REMARK   17  A    between atoms: _45  and  _48
REMARK   18  A    between atoms: _51  and  _53
REMARK   19  A    between atoms: _53  and  _54
REMARK   20  A    between atoms: _53  and  _56
REMARK   21  A    between atoms: _56  and  _57
REMARK   22  A    between atoms: _61  and  _62
REMARK   23  A    between atoms: _68  and  _69
REMARK   24  A    between atoms: _74  and  _76
REMARK   25  A    between atoms: _76  and  _77
REMARK   26  A    between atoms: _76  and  _79
REMARK   27  A    between atoms: _79  and  _80
REMARK   28  A    between atoms: _90  and  _92
REMARK   29  A    between atoms: _92  and  _93
REMARK   30  A    between atoms: _92  and  _95
REMARK   31  A    between atoms: _95  and  _96
REMARK   32  A    between atoms: _106  and  _108
REMARK   33  A    between atoms: _108  and  _109
REMARK   34  A    between atoms: _108  and  _111
REMARK   35  A    between atoms: _111  and  _112
REMARK   36  A    between atoms: _112  and  _113
REMARK   37  A    between atoms: _116  and  _118
REMARK   38  A    between atoms: _118  and  _119
REMARK   39  A    between atoms: _118  and  _121
REMARK   40  A    between atoms: _121  and  _122
REMARK   41  A    between atoms: _122  and  _123
REMARK   42  A    between atoms: _123  and  _124
REMARK   43  A    between atoms: _133  and  _135
REMARK   44  A    between atoms: _135  and  _136
REMARK   45  A    between atoms: _135  and  _138
REMARK   46  A    between atoms: _138  and  _139
REMARK   47  A    between atoms: _144  and  _145
REMARK   48  A    between atoms: _147  and  _149
REMARK   49  A    between atoms: _149  and  _150
REMARK   50  A    between atoms: _149  and  _152
REMARK   51  A    between atoms: _152  and  _153
REMARK   52  A    between atoms: _153  and  _154
REMARK   53  A    between atoms: _160  and  _161
REMARK   54  A    between atoms: _166  and  _168
REMARK   55  A    between atoms: _168  and  _169
REMARK   56  A    between atoms: _168  and  _171
REMARK   57  A    between atoms: _171  and  _172
REMARK   58  A    between atoms: _175  and  _177
REMARK   59  A    between atoms: _177  and  _178
REMARK   60  A    between atoms: _181  and  _183
REMARK   61  A    between atoms: _183  and  _184
REMARK   62  A    between atoms: _183  and  _186
REMARK   63  A    between atoms: _189  and  _191
REMARK   64  A    between atoms: _191  and  _192
REMARK   65  A    between atoms: _191  and  _194
REMARK   66  A    between atoms: _194  and  _195
REMARK   67  A    between atoms: _198  and  _200
REMARK   68  A    between atoms: _200  and  _201
REMARK   69  A    between atoms: _200  and  _203
REMARK   70  A    between atoms: _203  and  _204
REMARK   71  A    between atoms: _209  and  _211
REMARK   72  A    between atoms: _211  and  _212
REMARK   73  A    between atoms: _211  and  _214
REMARK   74  A    between atoms: _214  and  _215
REMARK   75  A    between atoms: _220  and  _222
REMARK   76  A    between atoms: _222  and  _223
REMARK   77  A    between atoms: _222  and  _225
REMARK   78  A    between atoms: _225  and  _226
REMARK   79  A    between atoms: _226  and  _227
REMARK   80  A    between atoms: _229  and  _231
REMARK   81  A    between atoms: _231  and  _232
REMARK   82  A    between atoms: _231  and  _234
REMARK   83  A    between atoms: _236  and  _238
REMARK   84  A    between atoms: _238  and  _239
REMARK   85  A    between atoms: _241  and  _243
REMARK   86  A    between atoms: _243  and  _244
REMARK   87  A    between atoms: _243  and  _246
REMARK   88  A    between atoms: _246  and  _247
REMARK   89  A    between atoms: _252  and  _254
REMARK   90  A    between atoms: _254  and  _255
REMARK   91  A    between atoms: _258  and  _260
REMARK   92  A    between atoms: _260  and  _261
REMARK   93  A    between atoms: _260  and  _263
REMARK   94  A    between atoms: _266  and  _268
REMARK   95  A    between atoms: _268  and  _269
REMARK   96  A    between atoms: _268  and  _271
REMARK   97  A    between atoms: _271  and  _272
REMARK   98  A    between atoms: _275  and  _277
REMARK   99  A    between atoms: _277  and  _278
REMARK  100  A    between atoms: _277  and  _280
REMARK  101  A    between atoms: _280  and  _281
REMARK  102  A    between atoms: _284  and  _286
REMARK  103  A    between atoms: _286  and  _287
REMARK  104  A    between atoms: _286  and  _289
REMARK  105  A    between atoms: _289  and  _290
REMARK  106  A    between atoms: _295  and  _296
REMARK  107  A    between atoms: _298  and  _300
REMARK  108  A    between atoms: _300  and  _301
REMARK  109  A    between atoms: _300  and  _303
REMARK  110  A    between atoms: _306  and  _308
REMARK  111  A    between atoms: _308  and  _309
REMARK  112  A    between atoms: _308  and  _311
REMARK  113  A    between atoms: _311  and  _312
REMARK  114  A    between atoms: _312  and  _313
REMARK  115  A    between atoms: _313  and  _314
REMARK  116  A    between atoms: _323  and  _325
REMARK  117  A    between atoms: _325  and  _326
REMARK  118  A    between atoms: _325  and  _328
REMARK  119  A    between atoms: _328  and  _329
REMARK  120  A    between atoms: _332  and  _334
REMARK  121  A    between atoms: _334  and  _335
REMARK  122  A    between atoms: _334  and  _337
REMARK  123  A    between atoms: _337  and  _338
REMARK  124  A    between atoms: _341  and  _343
REMARK  125  A    between atoms: _343  and  _344
REMARK  126  A    between atoms: _346  and  _348
REMARK  127  A    between atoms: _348  and  _349
REMARK  128  A    between atoms: _348  and  _351
REMARK  129  A    between atoms: _351  and  _352
REMARK  130  A    between atoms: _355  and  _357
REMARK  131  A    between atoms: _357  and  _358
REMARK  132  A    between atoms: _357  and  _360
REMARK  133  A    between atoms: _360  and  _361
REMARK  134  A    between atoms: _364  and  _366
REMARK  135  A    between atoms: _366  and  _367
REMARK  136  A    between atoms: _366  and  _369
REMARK  137  A    between atoms: _369  and  _370
REMARK  138  A    between atoms: _370  and  _371
REMARK  139  A    between atoms: _371  and  _372
REMARK  140  A    between atoms: _381  and  _383
REMARK  141  A    between atoms: _383  and  _384
REMARK  142  A    between atoms: _383  and  _386
REMARK  143  A    between atoms: _386  and  _387
REMARK  144  A    between atoms: _390  and  _392
REMARK  145  A    between atoms: _392  and  _393
REMARK  146  A    between atoms: _392  and  _395
REMARK  147  A    between atoms: _395  and  _396
REMARK  148  A    between atoms: _399  and  _401
REMARK  149  A    between atoms: _401  and  _402
REMARK  150  A    between atoms: _405  and  _407
REMARK  151  A    between atoms: _407  and  _408
REMARK  152  A    between atoms: _407  and  _410
REMARK  153  A    between atoms: _410  and  _411
REMARK  154  A    between atoms: _413  and  _415
REMARK  155  A    between atoms: _415  and  _416
REMARK  156  A    between atoms: _415  and  _418
REMARK  157  A    between atoms: _418  and  _419
REMARK  158  A    between atoms: _419  and  _420
REMARK  159  A    between atoms: _420  and  _421
REMARK  160  A    between atoms: _421  and  _422
REMARK  161  A    between atoms: _426  and  _428
REMARK  162  A    between atoms: _428  and  _429
REMARK  163  A    between atoms: _428  and  _431
REMARK  164  A    between atoms: _431  and  _432
REMARK  165  A    between atoms: _437  and  _439
REMARK  166  A    between atoms: _439  and  _440
REMARK  167  A    between atoms: _439  and  _442
REMARK  168  A    between atoms: _442  and  _443
REMARK  169  A    between atoms: _443  and  _444
REMARK  170  A    between atoms: _447  and  _449
REMARK  171  A    between atoms: _449  and  _450
REMARK  172  A    between atoms: _449  and  _452
REMARK  173  A    between atoms: _455  and  _457
REMARK  174  A    between atoms: _457  and  _458
REMARK  175  A    between atoms: _457  and  _460
REMARK  176  A    between atoms: _460  and  _461
REMARK  177  A    between atoms: _464  and  _466
REMARK  178  A    between atoms: _466  and  _467
REMARK  179  A    between atoms: _466  and  _469
REMARK  180  A    between atoms: _469  and  _470
REMARK  181  A    between atoms: _473  and  _475
REMARK  182  A    between atoms: _475  and  _476
REMARK  183  A    between atoms: _475  and  _478
REMARK  184  A    between atoms: _478  and  _479
REMARK  185  A    between atoms: _482  and  _484
REMARK  186  A    between atoms: _484  and  _485
REMARK  187  A    between atoms: _487  and  _489
REMARK  188  A    between atoms: _489  and  _490
REMARK  189  A    between atoms: _492  and  _494
REMARK  190  A    between atoms: _494  and  _495
REMARK  191  A    between atoms: _494  and  _497
REMARK  192  A    between atoms: _497  and  _498
REMARK  193  A    between atoms: _498  and  _499
REMARK  194  A    between atoms: _502  and  _504
REMARK  195  A    between atoms: _504  and  _505
REMARK  196  A    between atoms: _504  and  _507
REMARK  197  A    between atoms: _507  and  _508
REMARK  198  A    between atoms: _511  and  _513
REMARK  199  A    between atoms: _513  and  _514
REMARK  200  A    between atoms: _513  and  _516
REMARK  201  A    between atoms: _516  and  _517
REMARK  202  A    between atoms: _523  and  _525
REMARK  203  A    between atoms: _525  and  _526
REMARK  204  A    between atoms: _525  and  _528
REMARK  205  A    between atoms: _528  and  _529
REMARK  206  A    between atoms: _534  and  _536
REMARK  207  A    between atoms: _536  and  _537
REMARK  208  A    between atoms: _536  and  _539
REMARK  209  A    between atoms: _539  and  _540
REMARK  210  A    between atoms: _545  and  _547
REMARK  211  A    between atoms: _547  and  _548
REMARK  212  A    between atoms: _547  and  _550
REMARK  213  A    between atoms: _550  and  _551
REMARK  214  A    between atoms: _554  and  _556
REMARK  215  A    between atoms: _556  and  _557
REMARK  216  A    between atoms: _556  and  _559
REMARK  217  A    between atoms: _559  and  _560
REMARK  218  A    between atoms: _565  and  _567
REMARK  219  A    between atoms: _567  and  _568
REMARK  220  A    between atoms: _567  and  _570
REMARK  221  A    between atoms: _570  and  _571
REMARK  222  A    between atoms: _571  and  _572
REMARK  223  A    between atoms: _572  and  _573
REMARK  224  A    between atoms: _582  and  _584
REMARK  225  A    between atoms: _584  and  _585
REMARK  226  A    between atoms: _587  and  _589
REMARK  227  A    between atoms: _589  and  _590
REMARK  228  A    between atoms: _589  and  _592
REMARK  229  A    between atoms: _592  and  _593
REMARK  230  A    between atoms: _598  and  _600
REMARK  231  A    between atoms: _600  and  _601
REMARK  232  A    between atoms: _603  and  _605
REMARK  233  A    between atoms: _605  and  _606
REMARK  234  A    between atoms: _609  and  _611
REMARK  235  A    between atoms: _611  and  _612
REMARK  236  A    between atoms: _614  and  _616
REMARK  237  A    between atoms: _616  and  _617
REMARK  238  A    between atoms: _619  and  _621
REMARK  239  A    between atoms: _621  and  _622
REMARK  240  A    between atoms: _621  and  _624
REMARK  241  A    between atoms: _624  and  _625
REMARK  242  A    between atoms: _625  and  _626
REMARK  243  A    between atoms: _626  and  _627
REMARK  244  A    between atoms: _636  and  _638
REMARK  245  A    between atoms: _638  and  _639
REMARK  246  A    between atoms: _638  and  _641
REMARK  247  A    between atoms: _641  and  _642
REMARK  248  A    between atoms: _645  and  _647
REMARK  249  A    between atoms: _647  and  _648
REMARK  250  A    between atoms: _647  and  _650
REMARK  251  A    between atoms: _650  and  _651
REMARK                            x       y       z     vdW  Elec       q    Type
REMARK                         _______ _______ _______ _____ _____    ______ ____
ROOT
ATOM      1  CG  TYR A   1       1.365   9.874  40.975  0.00  0.00    -0.020 A 
ATOM      2  CD2 TYR A   1       1.860  10.506  42.141  0.00  0.00    -0.001 A 
ATOM      3  CE2 TYR A   1       3.178  11.038  42.180  0.00  0.00    +0.036 A 
ATOM      4  CZ  TYR A   1       3.999  10.932  41.039  0.00  0.00    +0.134 A 
ATOM      5  CE1 TYR A   1       3.530  10.311  39.860  0.00  0.00    +0.036 A 
ATOM      6  CD1 TYR A   1       2.206   9.785  39.837  0.00  0.00    -0.001 A 
ENDROOT
BRANCH   4   7
ATOM      7  OH  TYR A   1       5.275  11.422  41.093  0.00  0.00    -0.506 OA
ATOM      8  HH  TYR A   1       5.721  11.274  40.222  0.00  0.00    +0.292 HD
ENDBRANCH   4   7
BRANCH   1   9
ATOM      9  CB  TYR A   1      -0.011   9.276  40.959  0.00  0.00    +0.051 C 
BRANCH   9  10
ATOM     10  CA  TYR A   1      -0.005   7.753  41.019  0.00  0.00    +0.137 C 
BRANCH  10  11
ATOM     11  N   TYR A   1       0.310   7.171  39.715  0.00  0.00    -0.239 NA
ATOM     12  H   TYR A   1       0.171   7.743  38.857  0.00  0.00    +0.142 HD
ENDBRANCH  10  11
BRANCH  10  13
ATOM     13  C   TYR A   1      -1.291   7.236  41.656  0.00  0.00    +0.224 C 
ATOM     14  O   TYR A   1      -1.601   7.580  42.797  0.00  0.00    -0.287 OA
ENDBRANCH  10  13
ENDBRANCH   9  10
ENDBRANCH   1   9
TORSDOF 5
REMARK  Name = ../refined-set-2016/1xd0/1xd0_pocket.pdb
REMARK  251 active torsions:
REMARK  status: ('A' for Active; 'I' for Inactive)
REMARK    1  A    between atoms: _1  and  _3
REMARK    2  A    between atoms: _3  and  _4
REMARK    3  A    between atoms: _3  and  _6
REMARK    4  A    between atoms: _6  and  _7
REMARK    5  A    between atoms: _13  and  _15
REMARK    6  A    between atoms: _15  and  _16
REMARK    7  A    between atoms: _15  and  _18
REMARK    8  A    between atoms: _18  and  _19
REMARK    9  A    between atoms: _19  and  _20
REMARK   10  A    between atoms: _26  and  _27
REMARK   11  A    between atoms: _32  and  _34
REMARK   12  A    between atoms: _34  and  _35
REMARK   13  A    between atoms: _34  and  _37
REMARK   14  A    between atoms: _37  and  _38
REMARK   15  A    between atoms: _43  and  _45
REMARK   16  A    between atoms: _45  and  _46
REMARK   17  A    between atoms: _45  and  _48
REMARK   18  A    between atoms: _51  and  _53
REMARK   19  A    between atoms: _53  and  _54
REMARK   20  A    between atoms: _53  and  _56
REMARK   21  A    between atoms: _56  and  _57
REMARK   22  A    between atoms: _61  and  _62
REMARK   23  A    between atoms: _68  and  _69
REMARK   24  A    between atoms: _74  and  _76
REMARK   25  A    between atoms: _76  and  _77
REMARK   26  A    between atoms: _76  and  _79
REMARK   27  A    between atoms: _79  and  _80
REMARK   28  A    between atoms: _90  and  _92
REMARK   29  A    between atoms: _92  and  _93
REMARK   30  A    between atoms: _92  and  _95
REMARK   31  A    between atoms: _95  and  _96
REMARK   32  A    between atoms: _106  and  _108
REMARK   33  A    between atoms: _108  and  _109
REMARK   34  A    between atoms: _108  and  _111
REMARK   35  A    between atoms: _111  and  _112
REMARK   36  A    between atoms: _112  and  _113
REMARK   37  A    between atoms: _116  and  _118
REMARK   38  A    between atoms: _118  and  _119
REMARK   39  A    between atoms: _118  and  _121
REMARK   40  A    between atoms: _121  and  _122
REMARK   41  A    between atoms: _122  and  _123
REMARK   42  A    between atoms: _123  and  _124
REMARK   43  A    between atoms: _133  and  _135
REMARK   44  A    between atoms: _135  and  _136
REMARK   45  A    between atoms: _135  and  _138
REMARK   46  A    between atoms: _138  and  _139
REMARK   47  A    between atoms: _144  and  _145
REMARK   48  A    between atoms: _147  and  _149
REMARK   49  A    between atoms: _149  and  _150
REMARK   50  A    between atoms: _149  and  _152
REMARK   51  A    between atoms: _152  and  _153
REMARK   52  A    between atoms: _153  and  _154
REMARK   53  A    between atoms: _160  and  _161
REMARK   54  A    between atoms: _166  and  _168
REMARK   55  A    between atoms: _168  and  _169
REMARK   56  A    between atoms: _168  and  _171
REMARK   57  A    between atoms: _171  and  _172
REMARK   58  A    between atoms: _175  and  _177
REMARK   59  A    between atoms: _177  and  _178
REMARK   60  A    between atoms: _181  and  _183
REMARK   61  A    between atoms: _183  and  _184
REMARK   62  A    between atoms: _183  and  _186
REMARK   63  A    between atoms: _189  and  _191
REMARK   64  A    between atoms: _191  and  _192
REMARK   65  A    between atoms: _191  and  _194
REMARK   66  A    between atoms: _194  and  _195
REMARK   67  A    between atoms: _198  and  _200
REMARK   68  A    between atoms: _200  and  _201
REMARK   69  A    between atoms: _200  and  _203
REMARK   70  A    between atoms: _203  and  _204
REMARK   71  A    between atoms: _209  and  _211
REMARK   72  A    between atoms: _211  and  _212
REMARK   73  A    between atoms: _211  and  _214
REMARK   74  A    between atoms: _214  and  _215
REMARK   75  A    between atoms: _220  and  _222
REMARK   76  A    between atoms: _222  and  _223
REMARK   77  A    between atoms: _222  and  _225
REMARK   78  A    between atoms: _225  and  _226
REMARK   79  A    between atoms: _226  and  _227
REMARK   80  A    between atoms: _229  and  _231
REMARK   81  A    between atoms: _231  and  _232
REMARK   82  A    between atoms: _231  and  _234
REMARK   83  A    between atoms: _236  and  _238
REMARK   84  A    between atoms: _238  and  _239
REMARK   85  A    between atoms: _241  and  _243
REMARK   86  A    between atoms: _243  and  _244
REMARK   87  A    between atoms: _243  and  _246
REMARK   88  A    between atoms: _246  and  _247
REMARK   89  A    between atoms: _252  and  _254
REMARK   90  A    between atoms: _254  and  _255
REMARK   91  A    between atoms: _258  and  _260
REMARK   92  A    between atoms: _260  and  _261
REMARK   93  A    between atoms: _260  and  _263
REMARK   94  A    between atoms: _266  and  _268
REMARK   95  A    between atoms: _268  and  _269
REMARK   96  A    between atoms: _268  and  _271
REMARK   97  A    between atoms: _271  and  _272
REMARK   98  A    between atoms: _275  and  _277
REMARK   99  A    between atoms: _277  and  _278
REMARK  100  A    between atoms: _277  and  _280
REMARK  101  A    between atoms: _280  and  _281
REMARK  102  A    between atoms: _284  and  _286
REMARK  103  A    between atoms: _286  and  _287
REMARK  104  A    between atoms: _286  and  _289
REMARK  105  A    between atoms: _289  and  _290
REMARK  106  A    between atoms: _295  and  _296
REMARK  107  A    between atoms: _298  and  _300
REMARK  108  A    between atoms: _300  and  _301
REMARK  109  A    between atoms: _300  and  _303
REMARK  110  A    between atoms: _306  and  _308
REMARK  111  A    between atoms: _308  and  _309
REMARK  112  A    between atoms: _308  and  _311
REMARK  113  A    between atoms: _311  and  _312
REMARK  114  A    between atoms: _312  and  _313
REMARK  115  A    between atoms: _313  and  _314
REMARK  116  A    between atoms: _323  and  _325
REMARK  117  A    between atoms: _325  and  _326
REMARK  118  A    between atoms: _325  and  _328
REMARK  119  A    between atoms: _328  and  _329
REMARK  120  A    between atoms: _332  and  _334
REMARK  121  A    between atoms: _334  and  _335
REMARK  122  A    between atoms: _334  and  _337
REMARK  123  A    between atoms: _337  and  _338
REMARK  124  A    between atoms: _341  and  _343
REMARK  125  A    between atoms: _343  and  _344
REMARK  126  A    between atoms: _346  and  _348
REMARK  127  A    between atoms: _348  and  _349
REMARK  128  A    between atoms: _348  and  _351
REMARK  129  A    between atoms: _351  and  _352
REMARK  130  A    between atoms: _355  and  _357
REMARK  131  A    between atoms: _357  and  _358
REMARK  132  A    between atoms: _357  and  _360
REMARK  133  A    between atoms: _360  and  _361
REMARK  134  A    between atoms: _364  and  _366
REMARK  135  A    between atoms: _366  and  _367
REMARK  136  A    between atoms: _366  and  _369
REMARK  137  A    between atoms: _369  and  _370
REMARK  138  A    between atoms: _370  and  _371
REMARK  139  A    between atoms: _371  and  _372
REMARK  140  A    between atoms: _381  and  _383
REMARK  141  A    between atoms: _383  and  _384
REMARK  142  A    between atoms: _383  and  _386
REMARK  143  A    between atoms: _386  and  _387
REMARK  144  A    between atoms: _390  and  _392
REMARK  145  A    between atoms: _392  and  _393
REMARK  146  A    between atoms: _392  and  _395
REMARK  147  A    between atoms: _395  and  _396
REMARK  148  A    between atoms: _399  and  _401
REMARK  149  A    between atoms: _401  and  _402
REMARK  150  A    between atoms: _405  and  _407
REMARK  151  A    between atoms: _407  and  _408
REMARK  152  A    between atoms: _407  and  _410
REMARK  153  A    between atoms: _410  and  _411
REMARK  154  A    between atoms: _413  and  _415
REMARK  155  A    between atoms: _415  and  _416
REMARK  156  A    between atoms: _415  and  _418
REMARK  157  A    between atoms: _418  and  _419
REMARK  158  A    between atoms: _419  and  _420
REMARK  159  A    between atoms: _420  and  _421
REMARK  160  A    between atoms: _421  and  _422
REMARK  161  A    between atoms: _426  and  _428
REMARK  162  A    between atoms: _428  and  _429
REMARK  163  A    between atoms: _428  and  _431
REMARK  164  A    between atoms: _431  and  _432
REMARK  165  A    between atoms: _437  and  _439
REMARK  166  A    between atoms: _439  and  _440
REMARK  167  A    between atoms: _439  and  _442
REMARK  168  A    between atoms: _442  and  _443
REMARK  169  A    between atoms: _443  and  _444
REMARK  170  A    between atoms: _447  and  _449
REMARK  171  A    between atoms: _449  and  _450
REMARK  172  A    between atoms: _449  and  _452
REMARK  173  A    between atoms: _455  and  _457
REMARK  174  A    between atoms: _457  and  _458
REMARK  175  A    between atoms: _457  and  _460
REMARK  176  A    between atoms: _460  and  _461
REMARK  177  A    between atoms: _464  and  _466
REMARK  178  A    between atoms: _466  and  _467
REMARK  179  A    between atoms: _466  and  _469
REMARK  180  A    between atoms: _469  and  _470
REMARK  181  A    between atoms: _473  and  _475
REMARK  182  A    between atoms: _475  and  _476
REMARK  183  A    between atoms: _475  and  _478
REMARK  184  A    between atoms: _478  and  _479
REMARK  185  A    between atoms: _482  and  _484
REMARK  186  A    between atoms: _484  and  _485
REMARK  187  A    between atoms: _487  and  _489
REMARK  188  A    between atoms: _489  and  _490
REMARK  189  A    between atoms: _492  and  _494
REMARK  190  A    between atoms: _494  and  _495
REMARK  191  A    between atoms: _494  and  _497
REMARK  192  A    between atoms: _497  and  _498
REMARK  193  A    between atoms: _498  and  _499
REMARK  194  A    between atoms: _502  and  _504
REMARK  195  A    between atoms: _504  and  _505
REMARK  196  A    between atoms: _504  and  _507
REMARK  197  A    between atoms: _507  and  _508
REMARK  198  A    between atoms: _511  and  _513
REMARK  199  A    between atoms: _513  and  _514
REMARK  200  A    between atoms: _513  and  _516
REMARK  201  A    between atoms: _516  and  _517
REMARK  202  A    between atoms: _523  and  _525
REMARK  203  A    between atoms: _525  and  _526
REMARK  204  A    between atoms: _525  and  _528
REMARK  205  A    between atoms: _528  and  _529
REMARK  206  A    between atoms: _534  and  _536
REMARK  207  A    between atoms: _536  and  _537
REMARK  208  A    between atoms: _536  and  _539
REMARK  209  A    between atoms: _539  and  _540
REMARK  210  A    between atoms: _545  and  _547
REMARK  211  A    between atoms: _547  and  _548
REMARK  212  A    between atoms: _547  and  _550
REMARK  213  A    between atoms: _550  and  _551
REMARK  214  A    between atoms: _554  and  _556
REMARK  215  A    between atoms: _556  and  _557
REMARK  216  A    between atoms: _556  and  _559
REMARK  217  A    between atoms: _559  and  _560
REMARK  218  A    between atoms: _565  and  _567
REMARK  219  A    between atoms: _567  and  _568
REMARK  220  A    between atoms: _567  and  _570
REMARK  221  A    between atoms: _570  and  _571
REMARK  222  A    between atoms: _571  and  _572
REMARK  223  A    between atoms: _572  and  _573
REMARK  224  A    between atoms: _582  and  _584
REMARK  225  A    between atoms: _584  and  _585
REMARK  226  A    between atoms: _587  and  _589
REMARK  227  A    between atoms: _589  and  _590
REMARK  228  A    between atoms: _589  and  _592
REMARK  229  A    between atoms: _592  and  _593
REMARK  230  A    between atoms: _598  and  _600
REMARK  231  A    between atoms: _600  and  _601
REMARK  232  A    between atoms: _603  and  _605
REMARK  233  A    between atoms: _605  and  _606
REMARK  234  A    between atoms: _609  and  _611
REMARK  235  A    between atoms: _611  and  _612
REMARK  236  A    between atoms: _614  and  _616
REMARK  237  A    between atoms: _616  and  _617
REMARK  238  A    between atoms: _619  and  _621
REMARK  239  A    between atoms: _621  and  _622
REMARK  240  A    between atoms: _621  and  _624
REMARK  241  A    between atoms: _624  and  _625
REMARK  242  A    between atoms: _625  and  _626
REMARK  243  A    between atoms: _626  and  _627
REMARK  244  A    between atoms: _636  and  _638
REMARK  245  A    between atoms: _638  and  _639
REMARK  246  A    between atoms: _638  and  _641
REMARK  247  A    between atoms: _641  and  _642
REMARK  248  A    between atoms: _645  and  _647
REMARK  249  A    between atoms: _647  and  _648
REMARK  250  A    between atoms: _647  and  _650
REMARK  251  A    between atoms: _650  and  _651
REMARK                            x       y       z     vdW  Elec       q    Type
REMARK                         _______ _______ _______ _____ _____    ______ ____
ROOT
ATOM      1  CA  VAL A   1       4.380   5.924  44.819  0.00  0.00    +0.133 C 
ENDROOT
BRANCH   1   2
ATOM      2  CB  VAL A   1       3.138   6.772  45.158  0.00  0.00    +0.023 C 
ATOM      3  CG2 VAL A   1       3.537   8.205  45.527  0.00  0.00    +0.002 C 
ATOM      4  CG1 VAL A   1       2.189   6.817  43.989  0.00  0.00    +0.002 C 
ENDBRANCH   1   2
BRANCH   1   5
ATOM      5  N   VAL A   1       4.043   4.514  44.617  0.00  0.00    -0.239 NA
ATOM      6  H   VAL A   1       3.065   4.198  44.776  0.00  0.00    +0.142 HD
ENDBRANCH   1   5
BRANCH   1   7
ATOM      7  C   VAL A   1       5.406   6.034  45.959  0.00  0.00    +0.224 C 
ATOM      8  O   VAL A   1       6.290   6.902  45.932  0.00  0.00    -0.287 OA
ENDBRANCH   1   7
TORSDOF 3
REMARK  Name = ../refined-set-2016/1xd0/1xd0_pocket.pdb
REMARK  251 active torsions:
REMARK  status: ('A' for Active; 'I' for Inactive)
REMARK    1  A    between atoms: _1  and  _3
REMARK    2  A    between atoms: _3  and  _4
REMARK    3  A    between atoms: _3  and  _6
REMARK    4  A    between atoms: _6  and  _7
REMARK    5  A    between atoms: _13  and  _15
REMARK    6  A    between atoms: _15  and  _16
REMARK    7  A    between atoms: _15  and  _18
REMARK    8  A    between atoms: _18  and  _19
REMARK    9  A    between atoms: _19  and  _20
REMARK   10  A    between atoms: _26  and  _27
REMARK   11  A    between atoms: _32  and  _34
REMARK   12  A    between atoms: _34  and  _35
REMARK   13  A    between atoms: _34  and  _37
REMARK   14  A    between atoms: _37  and  _38
REMARK   15  A    between atoms: _43  and  _45
REMARK   16  A    between atoms: _45  and  _46
REMARK   17  A    between atoms: _45  and  _48
REMARK   18  A    between atoms: _51  and  _53
REMARK   19  A    between atoms: _53  and  _54
REMARK   20  A    between atoms: _53  and  _56
REMARK   21  A    between atoms: _56  and  _57
REMARK   22  A    between atoms: _61  and  _62
REMARK   23  A    between atoms: _68  and  _69
REMARK   24  A    between atoms: _74  and  _76
REMARK   25  A    between atoms: _76  and  _77
REMARK   26  A    between atoms: _76  and  _79
REMARK   27  A    between atoms: _79  and  _80
REMARK   28  A    between atoms: _90  and  _92
REMARK   29  A    between atoms: _92  and  _93
REMARK   30  A    between atoms: _92  and  _95
REMARK   31  A    between atoms: _95  and  _96
REMARK   32  A    between atoms: _106  and  _108
REMARK   33  A    between atoms: _108  and  _109
REMARK   34  A    between atoms: _108  and  _111
REMARK   35  A    between atoms: _111  and  _112
REMARK   36  A    between atoms: _112  and  _113
REMARK   37  A    between atoms: _116  and  _118
REMARK   38  A    between atoms: _118  and  _119
REMARK   39  A    between atoms: _118  and  _121
REMARK   40  A    between atoms: _121  and  _122
REMARK   41  A    between atoms: _122  and  _123
REMARK   42  A    between atoms: _123  and  _124
REMARK   43  A    between atoms: _133  and  _135
REMARK   44  A    between atoms: _135  and  _136
REMARK   45  A    between atoms: _135  and  _138
REMARK   46  A    between atoms: _138  and  _139
REMARK   47  A    between atoms: _144  and  _145
REMARK   48  A    between atoms: _147  and  _149
REMARK   49  A    between atoms: _149  and  _150
REMARK   50  A    between atoms: _149  and  _152
REMARK   51  A    between atoms: _152  and  _153
REMARK   52  A    between atoms: _153  and  _154
REMARK   53  A    between atoms: _160  and  _161
REMARK   54  A    between atoms: _166  and  _168
REMARK   55  A    between atoms: _168  and  _169
REMARK   56  A    between atoms: _168  and  _171
REMARK   57  A    between atoms: _171  and  _172
REMARK   58  A    between atoms: _175  and  _177
REMARK   59  A    between atoms: _177  and  _178
REMARK   60  A    between atoms: _181  and  _183
REMARK   61  A    between atoms: _183  and  _184
REMARK   62  A    between atoms: _183  and  _186
REMARK   63  A    between atoms: _189  and  _191
REMARK   64  A    between atoms: _191  and  _192
REMARK   65  A    between atoms: _191  and  _194
REMARK   66  A    between atoms: _194  and  _195
REMARK   67  A    between atoms: _198  and  _200
REMARK   68  A    between atoms: _200  and  _201
REMARK   69  A    between atoms: _200  and  _203
REMARK   70  A    between atoms: _203  and  _204
REMARK   71  A    between atoms: _209  and  _211
REMARK   72  A    between atoms: _211  and  _212
REMARK   73  A    between atoms: _211  and  _214
REMARK   74  A    between atoms: _214  and  _215
REMARK   75  A    between atoms: _220  and  _222
REMARK   76  A    between atoms: _222  and  _223
REMARK   77  A    between atoms: _222  and  _225
REMARK   78  A    between atoms: _225  and  _226
REMARK   79  A    between atoms: _226  and  _227
REMARK   80  A    between atoms: _229  and  _231
REMARK   81  A    between atoms: _231  and  _232
REMARK   82  A    between atoms: _231  and  _234
REMARK   83  A    between atoms: _236  and  _238
REMARK   84  A    between atoms: _238  and  _239
REMARK   85  A    between atoms: _241  and  _243
REMARK   86  A    between atoms: _243  and  _244
REMARK   87  A    between atoms: _243  and  _246
REMARK   88  A    between atoms: _246  and  _247
REMARK   89  A    between atoms: _252  and  _254
REMARK   90  A    between atoms: _254  and  _255
REMARK   91  A    between atoms: _258  and  _260
REMARK   92  A    between atoms: _260  and  _261
REMARK   93  A    between atoms: _260  and  _263
REMARK   94  A    between atoms: _266  and  _268
REMARK   95  A    between atoms: _268  and  _269
REMARK   96  A    between atoms: _268  and  _271
REMARK   97  A    between atoms: _271  and  _272
REMARK   98  A    between atoms: _275  and  _277
REMARK   99  A    between atoms: _277  and  _278
REMARK  100  A    between atoms: _277  and  _280
REMARK  101  A    between atoms: _280  and  _281
REMARK  102  A    between atoms: _284  and  _286
REMARK  103  A    between atoms: _286  and  _287
REMARK  104  A    between atoms: _286  and  _289
REMARK  105  A    between atoms: _289  and  _290
REMARK  106  A    between atoms: _295  and  _296
REMARK  107  A    between atoms: _298  and  _300
REMARK  108  A    between atoms: _300  and  _301
REMARK  109  A    between atoms: _300  and  _303
REMARK  110  A    between atoms: _306  and  _308
REMARK  111  A    between atoms: _308  and  _309
REMARK  112  A    between atoms: _308  and  _311
REMARK  113  A    between atoms: _311  and  _312
REMARK  114  A    between atoms: _312  and  _313
REMARK  115  A    between atoms: _313  and  _314
REMARK  116  A    between atoms: _323  and  _325
REMARK  117  A    between atoms: _325  and  _326
REMARK  118  A    between atoms: _325  and  _328
REMARK  119  A    between atoms: _328  and  _329
REMARK  120  A    between atoms: _332  and  _334
REMARK  121  A    between atoms: _334  and  _335
REMARK  122  A    between atoms: _334  and  _337
REMARK  123  A    between atoms: _337  and  _338
REMARK  124  A    between atoms: _341  and  _343
REMARK  125  A    between atoms: _343  and  _344
REMARK  126  A    between atoms: _346  and  _348
REMARK  127  A    between atoms: _348  and  _349
REMARK  128  A    between atoms: _348  and  _351
REMARK  129  A    between atoms: _351  and  _352
REMARK  130  A    between atoms: _355  and  _357
REMARK  131  A    between atoms: _357  and  _358
REMARK  132  A    between atoms: _357  and  _360
REMARK  133  A    between atoms: _360  and  _361
REMARK  134  A    between atoms: _364  and  _366
REMARK  135  A    between atoms: _366  and  _367
REMARK  136  A    between atoms: _366  and  _369
REMARK  137  A    between atoms: _369  and  _370
REMARK  138  A    between atoms: _370  and  _371
REMARK  139  A    between atoms: _371  and  _372
REMARK  140  A    between atoms: _381  and  _383
REMARK  141  A    between atoms: _383  and  _384
REMARK  142  A    between atoms: _383  and  _386
REMARK  143  A    between atoms: _386  and  _387
REMARK  144  A    between atoms: _390  and  _392
REMARK  145  A    between atoms: _392  and  _393
REMARK  146  A    between atoms: _392  and  _395
REMARK  147  A    between atoms: _395  and  _396
REMARK  148  A    between atoms: _399  and  _401
REMARK  149  A    between atoms: _401  and  _402
REMARK  150  A    between atoms: _405  and  _407
REMARK  151  A    between atoms: _407  and  _408
REMARK  152  A    between atoms: _407  and  _410
REMARK  153  A    between atoms: _410  and  _411
REMARK  154  A    between atoms: _413  and  _415
REMARK  155  A    between atoms: _415  and  _416
REMARK  156  A    between atoms: _415  and  _418
REMARK  157  A    between atoms: _418  and  _419
REMARK  158  A    between atoms: _419  and  _420
REMARK  159  A    between atoms: _420  and  _421
REMARK  160  A    between atoms: _421  and  _422
REMARK  161  A    between atoms: _426  and  _428
REMARK  162  A    between atoms: _428  and  _429
REMARK  163  A    between atoms: _428  and  _431
REMARK  164  A    between atoms: _431  and  _432
REMARK  165  A    between atoms: _437  and  _439
REMARK  166  A    between atoms: _439  and  _440
REMARK  167  A    between atoms: _439  and  _442
REMARK  168  A    between atoms: _442  and  _443
REMARK  169  A    between atoms: _443  and  _444
REMARK  170  A    between atoms: _447  and  _449
REMARK  171  A    between atoms: _449  and  _450
REMARK  172  A    between atoms: _449  and  _452
REMARK  173  A    between atoms: _455  and  _457
REMARK  174  A    between atoms: _457  and  _458
REMARK  175  A    between atoms: _457  and  _460
REMARK  176  A    between atoms: _460  and  _461
REMARK  177  A    between atoms: _464  and  _466
REMARK  178  A    between atoms: _466  and  _467
REMARK  179  A    between atoms: _466  and  _469
REMARK  180  A    between atoms: _469  and  _470
REMARK  181  A    between atoms: _473  and  _475
REMARK  182  A    between atoms: _475  and  _476
REMARK  183  A    between atoms: _475  and  _478
REMARK  184  A    between atoms: _478  and  _479
REMARK  185  A    between atoms: _482  and  _484
REMARK  186  A    between atoms: _484  and  _485
REMARK  187  A    between atoms: _487  and  _489
REMARK  188  A    between atoms: _489  and  _490
REMARK  189  A    between atoms: _492  and  _494
REMARK  190  A    between atoms: _494  and  _495
REMARK  191  A    between atoms: _494  and  _497
REMARK  192  A    between atoms: _497  and  _498
REMARK  193  A    between atoms: _498  and  _499
REMARK  194  A    between atoms: _502  and  _504
REMARK  195  A    between atoms: _504  and  _505
REMARK  196  A    between atoms: _504  and  _507
REMARK  197  A    between atoms: _507  and  _508
REMARK  198  A    between atoms: _511  and  _513
REMARK  199  A    between atoms: _513  and  _514
REMARK  200  A    between atoms: _513  and  _516
REMARK  201  A    between atoms: _516  and  _517
REMARK  202  A    between atoms: _523  and  _525
REMARK  203  A    between atoms: _525  and  _526
REMARK  204  A    between atoms: _525  and  _528
REMARK  205  A    between atoms: _528  and  _529
REMARK  206  A    between atoms: _534  and  _536
REMARK  207  A    between atoms: _536  and  _537
REMARK  208  A    between atoms: _536  and  _539
REMARK  209  A    between atoms: _539  and  _540
REMARK  210  A    between atoms: _545  and  _547
REMARK  211  A    between atoms: _547  and  _548
REMARK  212  A    between atoms: _547  and  _550
REMARK  213  A    between atoms: _550  and  _551
REMARK  214  A    between atoms: _554  and  _556
REMARK  215  A    between atoms: _556  and  _557
REMARK  216  A    between atoms: _556  and  _559
REMARK  217  A    between atoms: _559  and  _560
REMARK  218  A    between atoms: _565  and  _567
REMARK  219  A    between atoms: _567  and  _568
REMARK  220  A    between atoms: _567  and  _570
REMARK  221  A    between atoms: _570  and  _571
REMARK  222  A    between atoms: _571  and  _572
REMARK  223  A    between atoms: _572  and  _573
REMARK  224  A    between atoms: _582  and  _584
REMARK  225  A    between atoms: _584  and  _585
REMARK  226  A    between atoms: _587  and  _589
REMARK  227  A    between atoms: _589  and  _590
REMARK  228  A    between atoms: _589  and  _592
REMARK  229  A    between atoms: _592  and  _593
REMARK  230  A    between atoms: _598  and  _600
REMARK  231  A    between atoms: _600  and  _601
REMARK  232  A    between atoms: _603  and  _605
REMARK  233  A    between atoms: _605  and  _606
REMARK  234  A    between atoms: _609  and  _611
REMARK  235  A    between atoms: _611  and  _612
REMARK  236  A    between atoms: _614  and  _616
REMARK  237  A    between atoms: _616  and  _617
REMARK  238  A    between atoms: _619  and  _621
REMARK  239  A    between atoms: _621  and  _622
REMARK  240  A    between atoms: _621  and  _624
REMARK  241  A    between atoms: _624  and  _625
REMARK  242  A    between atoms: _625  and  _626
REMARK  243  A    between atoms: _626  and  _627
REMARK  244  A    between atoms: _636  and  _638
REMARK  245  A    between atoms: _638  and  _639
REMARK  246  A    between atoms: _638  and  _641
REMARK  247  A    between atoms: _641  and  _642
REMARK  248  A    between atoms: _645  and  _647
REMARK  249  A    between atoms: _647  and  _648
REMARK  250  A    between atoms: _647  and  _650
REMARK  251  A    between atoms: _650  and  _651
REMARK                            x       y       z     vdW  Elec       q    Type
REMARK                         _______ _______ _______ _____ _____    ______ ____
ROOT
ATOM      1  CA  THR A   3      11.822   9.814  38.123  0.00  0.00    +0.176 C 
ENDROOT
BRANCH   1   2
ATOM      2  C   THR A   3      13.248   9.223  38.107  0.00  0.00    +0.243 C 
ATOM      3  N   GLY A   4      13.369   7.953  38.500  0.00  0.00    -0.295 N 
ATOM      4  H   GLY A   4      12.525   7.421  38.792  0.00  0.00    +0.150 HD
ATOM      5  O   THR A   3      14.221   9.948  37.887  0.00  0.00    -0.273 OA
BRANCH   3   6
ATOM      6  CA  GLY A   4      14.674   7.306  38.523  0.00  0.00    +0.176 C 
BRANCH   6   7
ATOM      7  C   GLY A   4      15.563   7.511  39.742  0.00  0.00    +0.243 C 
ATOM      8  N   LEU A   5      15.133   8.325  40.708  0.00  0.00    -0.297 N 
ATOM      9  H   LEU A   5      14.216   8.803  40.598  0.00  0.00    +0.150 HD
ATOM     10  O   GLY A   4      16.637   6.909  39.804  0.00  0.00    -0.273 OA
BRANCH   8  11
ATOM     11  CA  LEU A   5      15.921   8.562  41.918  0.00  0.00    +0.149 C 
BRANCH  11  12
ATOM     12  C   LEU A   5      15.960   7.340  42.807  0.00  0.00    +0.241 C 
ATOM     13  O   LEU A   5      14.906   6.838  43.190  0.00  0.00    -0.273 OA
ATOM     14  N   LEU A   6      17.167   6.855  43.116  0.00  0.00    -0.298 N 
ATOM     15  H   LEU A   6      18.011   7.329  42.735  0.00  0.00    +0.150 HD
BRANCH  14  16
ATOM     16  CA  LEU A   6      17.342   5.676  43.975  0.00  0.00    +0.137 C 
BRANCH  16  17
ATOM     17  C   LEU A   6      16.586   5.831  45.287  0.00  0.00    +0.227 C 
ATOM     18  O   LEU A   6      16.861   6.738  46.035  0.00  0.00    -0.286 OA
ENDBRANCH  16  17
BRANCH  16  19
ATOM     19  CB  LEU A   6      18.819   5.421  44.230  0.00  0.00    +0.028 C 
BRANCH  19  20
ATOM     20  CG  LEU A   6      19.621   4.967  43.021  0.00  0.00    +0.002 C 
ATOM     21  CD2 LEU A   6      21.095   4.931  43.328  0.00  0.00    +0.000 C 
ATOM     22  CD1 LEU A   6      19.132   3.610  42.562  0.00  0.00    +0.000 C 
ENDBRANCH  19  20
ENDBRANCH  16  19
ENDBRANCH  14  16
ENDBRANCH  11  12
BRANCH  11  23
ATOM     23  CB  LEU A   5      15.351   9.738  42.699  0.00  0.00    +0.029 C 
BRANCH  23  24
ATOM     24  CG  LEU A   5      15.703  11.192  42.372  0.00  0.00    +0.002 C 
ATOM     25  CD2 LEU A   5      14.450  12.001  42.155  0.00  0.00    +0.000 C 
ATOM     26  CD1 LEU A   5      16.703  11.359  41.288  0.00  0.00    +0.000 C 
ENDBRANCH  23  24
ENDBRANCH  11  23
ENDBRANCH   8  11
ENDBRANCH   6   7
ENDBRANCH   3   6
ENDBRANCH   1   2
BRANCH   1  29
ATOM     27  C   LEU A   2      11.522   9.485  40.559  0.00  0.00    +0.241 C 
ATOM     28  O   LEU A   2      12.669   9.819  40.835  0.00  0.00    -0.273 OA
ATOM     29  N   THR A   3      11.043   9.427  39.313  0.00  0.00    -0.295 N 
ATOM     30  H   THR A   3      10.068   9.091  39.175  0.00  0.00    +0.150 HD
BRANCH  27  31
ATOM     31  CA  LEU A   2      10.594   9.031  41.662  0.00  0.00    +0.149 C 
BRANCH  31  33
ATOM     32  C   ARG A   1      11.135   6.650  41.472  0.00  0.00    +0.238 C 
ATOM     33  N   LEU A   2      11.152   7.783  42.179  0.00  0.00    -0.297 N 
ATOM     34  H   LEU A   2      11.576   7.777  43.129  0.00  0.00    +0.150 HD
ATOM     35  O   ARG A   1      10.633   6.560  40.347  0.00  0.00    -0.274 OA
BRANCH  32  36
ATOM     36  CA  ARG A   1      11.809   5.453  42.124  0.00  0.00    +0.145 C 
BRANCH  36  37
ATOM     37  N   ARG A   1      10.985   4.276  42.374  0.00  0.00    -0.238 NA
ATOM     38  H   ARG A   1      11.019   3.482  41.704  0.00  0.00    +0.142 HD
ENDBRANCH  36  37
BRANCH  36  39
ATOM     39  CB  ARG A   1      13.036   5.066  41.303  0.00  0.00    +0.030 C 
BRANCH  39  40
ATOM     40  CG  ARG A   1      13.864   3.924  41.868  0.00  0.00    +0.045 C 
BRANCH  40  41
ATOM     41  CD  ARG A   1      15.118   3.689  41.045  0.00  0.00    +0.174 C 
BRANCH  41  42
ATOM     42  NE  ARG A   1      14.829   3.498  39.623  0.00  0.00    -0.265 N 
ATOM     43  HE  ARG A   1      14.507   4.326  39.082  0.00  0.00    +0.259 HD
ATOM     44  CZ  ARG A   1      14.947   2.344  38.969  0.00  0.00    +0.342 C 
ATOM     45  NH2 ARG A   1      15.349   1.251  39.604  0.00  0.00    -0.292 N 
ATOM     46 HH21 ARG A   1      15.574   1.292  40.619  0.00  0.00    +0.255 HD
ATOM     47 HH22 ARG A   1      15.439   0.353  39.087  0.00  0.00    +0.255 HD
ATOM     48  NH1 ARG A   1      14.666   2.288  37.670  0.00  0.00    -0.292 N 
ATOM     49 HH11 ARG A   1      14.355   3.144  37.168  0.00  0.00    +0.255 HD
ATOM     50 HH12 ARG A   1      14.757   1.388  37.157  0.00  0.00    +0.255 HD
ENDBRANCH  41  42
ENDBRANCH  40  41
ENDBRANCH  39  40
ENDBRANCH  36  39
ENDBRANCH  32  36
ENDBRANCH  31  33
BRANCH  31  51
ATOM     51  CB  LEU A   2      10.526  10.101  42.761  0.00  0.00    +0.029 C 
BRANCH  51  52
ATOM     52  CG  LEU A   2      10.128  11.531  42.355  0.00  0.00    +0.002 C 
ATOM     53  CD2 LEU A   2      10.225  12.440  43.555  0.00  0.00    +0.000 C 
ATOM     54  CD1 LEU A   2       8.716  11.561  41.749  0.00  0.00    +0.000 C 
ENDBRANCH  51  52
ENDBRANCH  31  51
ENDBRANCH  27  31
ENDBRANCH   1  29
BRANCH   1  55
ATOM     55  CB  THR A   3      11.896  11.371  37.949  0.00  0.00    +0.137 C 
ATOM     56  CG2 THR A   3      10.515  11.957  37.804  0.00  0.00    +0.034 C 
BRANCH  55  57
ATOM     57  OG1 THR A   3      12.547  11.961  39.085  0.00  0.00    -0.382 OA
ATOM     58  HG1 THR A   3      13.464  11.597  39.164  0.00  0.00    +0.210 HD
ENDBRANCH  55  57
ENDBRANCH   1  55
TORSDOF 24
REMARK  Name = ../refined-set-2016/1xd0/1xd0_pocket.pdb
REMARK  251 active torsions:
REMARK  status: ('A' for Active; 'I' for Inactive)
REMARK    1  A    between atoms: _1  and  _3
REMARK    2  A    between atoms: _3  and  _4
REMARK    3  A    between atoms: _3  and  _6
REMARK    4  A    between atoms: _6  and  _7
REMARK    5  A    between atoms: _13  and  _15
REMARK    6  A    between atoms: _15  and  _16
REMARK    7  A    between atoms: _15  and  _18
REMARK    8  A    between atoms: _18  and  _19
REMARK    9  A    between atoms: _19  and  _20
REMARK   10  A    between atoms: _26  and  _27
REMARK   11  A    between atoms: _32  and  _34
REMARK   12  A    between atoms: _34  and  _35
REMARK   13  A    between atoms: _34  and  _37
REMARK   14  A    between atoms: _37  and  _38
REMARK   15  A    between atoms: _43  and  _45
REMARK   16  A    between atoms: _45  and  _46
REMARK   17  A    between atoms: _45  and  _48
REMARK   18  A    between atoms: _51  and  _53
REMARK   19  A    between atoms: _53  and  _54
REMARK   20  A    between atoms: _53  and  _56
REMARK   21  A    between atoms: _56  and  _57
REMARK   22  A    between atoms: _61  and  _62
REMARK   23  A    between atoms: _68  and  _69
REMARK   24  A    between atoms: _74  and  _76
REMARK   25  A    between atoms: _76  and  _77
REMARK   26  A    between atoms: _76  and  _79
REMARK   27  A    between atoms: _79  and  _80
REMARK   28  A    between atoms: _90  and  _92
REMARK   29  A    between atoms: _92  and  _93
REMARK   30  A    between atoms: _92  and  _95
REMARK   31  A    between atoms: _95  and  _96
REMARK   32  A    between atoms: _106  and  _108
REMARK   33  A    between atoms: _108  and  _109
REMARK   34  A    between atoms: _108  and  _111
REMARK   35  A    between atoms: _111  and  _112
REMARK   36  A    between atoms: _112  and  _113
REMARK   37  A    between atoms: _116  and  _118
REMARK   38  A    between atoms: _118  and  _119
REMARK   39  A    between atoms: _118  and  _121
REMARK   40  A    between atoms: _121  and  _122
REMARK   41  A    between atoms: _122  and  _123
REMARK   42  A    between atoms: _123  and  _124
REMARK   43  A    between atoms: _133  and  _135
REMARK   44  A    between atoms: _135  and  _136
REMARK   45  A    between atoms: _135  and  _138
REMARK   46  A    between atoms: _138  and  _139
REMARK   47  A    between atoms: _144  and  _145
REMARK   48  A    between atoms: _147  and  _149
REMARK   49  A    between atoms: _149  and  _150
REMARK   50  A    between atoms: _149  and  _152
REMARK   51  A    between atoms: _152  and  _153
REMARK   52  A    between atoms: _153  and  _154
REMARK   53  A    between atoms: _160  and  _161
REMARK   54  A    between atoms: _166  and  _168
REMARK   55  A    between atoms: _168  and  _169
REMARK   56  A    between atoms: _168  and  _171
REMARK   57  A    between atoms: _171  and  _172
REMARK   58  A    between atoms: _175  and  _177
REMARK   59  A    between atoms: _177  and  _178
REMARK   60  A    between atoms: _181  and  _183
REMARK   61  A    between atoms: _183  and  _184
REMARK   62  A    between atoms: _183  and  _186
REMARK   63  A    between atoms: _189  and  _191
REMARK   64  A    between atoms: _191  and  _192
REMARK   65  A    between atoms: _191  and  _194
REMARK   66  A    between atoms: _194  and  _195
REMARK   67  A    between atoms: _198  and  _200
REMARK   68  A    between atoms: _200  and  _201
REMARK   69  A    between atoms: _200  and  _203
REMARK   70  A    between atoms: _203  and  _204
REMARK   71  A    between atoms: _209  and  _211
REMARK   72  A    between atoms: _211  and  _212
REMARK   73  A    between atoms: _211  and  _214
REMARK   74  A    between atoms: _214  and  _215
REMARK   75  A    between atoms: _220  and  _222
REMARK   76  A    between atoms: _222  and  _223
REMARK   77  A    between atoms: _222  and  _225
REMARK   78  A    between atoms: _225  and  _226
REMARK   79  A    between atoms: _226  and  _227
REMARK   80  A    between atoms: _229  and  _231
REMARK   81  A    between atoms: _231  and  _232
REMARK   82  A    between atoms: _231  and  _234
REMARK   83  A    between atoms: _236  and  _238
REMARK   84  A    between atoms: _238  and  _239
REMARK   85  A    between atoms: _241  and  _243
REMARK   86  A    between atoms: _243  and  _244
REMARK   87  A    between atoms: _243  and  _246
REMARK   88  A    between atoms: _246  and  _247
REMARK   89  A    between atoms: _252  and  _254
REMARK   90  A    between atoms: _254  and  _255
REMARK   91  A    between atoms: _258  and  _260
REMARK   92  A    between atoms: _260  and  _261
REMARK   93  A    between atoms: _260  and  _263
REMARK   94  A    between atoms: _266  and  _268
REMARK   95  A    between atoms: _268  and  _269
REMARK   96  A    between atoms: _268  and  _271
REMARK   97  A    between atoms: _271  and  _272
REMARK   98  A    between atoms: _275  and  _277
REMARK   99  A    between atoms: _277  and  _278
REMARK  100  A    between atoms: _277  and  _280
REMARK  101  A    between atoms: _280  and  _281
REMARK  102  A    between atoms: _284  and  _286
REMARK  103  A    between atoms: _286  and  _287
REMARK  104  A    between atoms: _286  and  _289
REMARK  105  A    between atoms: _289  and  _290
REMARK  106  A    between atoms: _295  and  _296
REMARK  107  A    between atoms: _298  and  _300
REMARK  108  A    between atoms: _300  and  _301
REMARK  109  A    between atoms: _300  and  _303
REMARK  110  A    between atoms: _306  and  _308
REMARK  111  A    between atoms: _308  and  _309
REMARK  112  A    between atoms: _308  and  _311
REMARK  113  A    between atoms: _311  and  _312
REMARK  114  A    between atoms: _312  and  _313
REMARK  115  A    between atoms: _313  and  _314
REMARK  116  A    between atoms: _323  and  _325
REMARK  117  A    between atoms: _325  and  _326
REMARK  118  A    between atoms: _325  and  _328
REMARK  119  A    between atoms: _328  and  _329
REMARK  120  A    between atoms: _332  and  _334
REMARK  121  A    between atoms: _334  and  _335
REMARK  122  A    between atoms: _334  and  _337
REMARK  123  A    between atoms: _337  and  _338
REMARK  124  A    between atoms: _341  and  _343
REMARK  125  A    between atoms: _343  and  _344
REMARK  126  A    between atoms: _346  and  _348
REMARK  127  A    between atoms: _348  and  _349
REMARK  128  A    between atoms: _348  and  _351
REMARK  129  A    between atoms: _351  and  _352
REMARK  130  A    between atoms: _355  and  _357
REMARK  131  A    between atoms: _357  and  _358
REMARK  132  A    between atoms: _357  and  _360
REMARK  133  A    between atoms: _360  and  _361
REMARK  134  A    between atoms: _364  and  _366
REMARK  135  A    between atoms: _366  and  _367
REMARK  136  A    between atoms: _366  and  _369
REMARK  137  A    between atoms: _369  and  _370
REMARK  138  A    between atoms: _370  and  _371
REMARK  139  A    between atoms: _371  and  _372
REMARK  140  A    between atoms: _381  and  _383
REMARK  141  A    between atoms: _383  and  _384
REMARK  142  A    between atoms: _383  and  _386
REMARK  143  A    between atoms: _386  and  _387
REMARK  144  A    between atoms: _390  and  _392
REMARK  145  A    between atoms: _392  and  _393
REMARK  146  A    between atoms: _392  and  _395
REMARK  147  A    between atoms: _395  and  _396
REMARK  148  A    between atoms: _399  and  _401
REMARK  149  A    between atoms: _401  and  _402
REMARK  150  A    between atoms: _405  and  _407
REMARK  151  A    between atoms: _407  and  _408
REMARK  152  A    between atoms: _407  and  _410
REMARK  153  A    between atoms: _410  and  _411
REMARK  154  A    between atoms: _413  and  _415
REMARK  155  A    between atoms: _415  and  _416
REMARK  156  A    between atoms: _415  and  _418
REMARK  157  A    between atoms: _418  and  _419
REMARK  158  A    between atoms: _419  and  _420
REMARK  159  A    between atoms: _420  and  _421
REMARK  160  A    between atoms: _421  and  _422
REMARK  161  A    between atoms: _426  and  _428
REMARK  162  A    between atoms: _428  and  _429
REMARK  163  A    between atoms: _428  and  _431
REMARK  164  A    between atoms: _431  and  _432
REMARK  165  A    between atoms: _437  and  _439
REMARK  166  A    between atoms: _439  and  _440
REMARK  167  A    between atoms: _439  and  _442
REMARK  168  A    between atoms: _442  and  _443
REMARK  169  A    between atoms: _443  and  _444
REMARK  170  A    between atoms: _447  and  _449
REMARK  171  A    between atoms: _449  and  _450
REMARK  172  A    between atoms: _449  and  _452
REMARK  173  A    between atoms: _455  and  _457
REMARK  174  A    between atoms: _457  and  _458
REMARK  175  A    between atoms: _457  and  _460
REMARK  176  A    between atoms: _460  and  _461
REMARK  177  A    between atoms: _464  and  _466
REMARK  178  A    between atoms: _466  and  _467
REMARK  179  A    between atoms: _466  and  _469
REMARK  180  A    between atoms: _469  and  _470
REMARK  181  A    between atoms: _473  and  _475
REMARK  182  A    between atoms: _475  and  _476
REMARK  183  A    between atoms: _475  and  _478
REMARK  184  A    between atoms: _478  and  _479
REMARK  185  A    between atoms: _482  and  _484
REMARK  186  A    between atoms: _484  and  _485
REMARK  187  A    between atoms: _487  and  _489
REMARK  188  A    between atoms: _489  and  _490
REMARK  189  A    between atoms: _492  and  _494
REMARK  190  A    between atoms: _494  and  _495
REMARK  191  A    between atoms: _494  and  _497
REMARK  192  A    between atoms: _497  and  _498
REMARK  193  A    between atoms: _498  and  _499
REMARK  194  A    between atoms: _502  and  _504
REMARK  195  A    between atoms: _504  and  _505
REMARK  196  A    between atoms: _504  and  _507
REMARK  197  A    between atoms: _507  and  _508
REMARK  198  A    between atoms: _511  and  _513
REMARK  199  A    between atoms: _513  and  _514
REMARK  200  A    between atoms: _513  and  _516
REMARK  201  A    between atoms: _516  and  _517
REMARK  202  A    between atoms: _523  and  _525
REMARK  203  A    between atoms: _525  and  _526
REMARK  204  A    between atoms: _525  and  _528
REMARK  205  A    between atoms: _528  and  _529
REMARK  206  A    between atoms: _534  and  _536
REMARK  207  A    between atoms: _536  and  _537
REMARK  208  A    between atoms: _536  and  _539
REMARK  209  A    between atoms: _539  and  _540
REMARK  210  A    between atoms: _545  and  _547
REMARK  211  A    between atoms: _547  and  _548
REMARK  212  A    between atoms: _547  and  _550
REMARK  213  A    between atoms: _550  and  _551
REMARK  214  A    between atoms: _554  and  _556
REMARK  215  A    between atoms: _556  and  _557
REMARK  216  A    between atoms: _556  and  _559
REMARK  217  A    between atoms: _559  and  _560
REMARK  218  A    between atoms: _565  and  _567
REMARK  219  A    between atoms: _567  and  _568
REMARK  220  A    between atoms: _567  and  _570
REMARK  221  A    between atoms: _570  and  _571
REMARK  222  A    between atoms: _571  and  _572
REMARK  223  A    between atoms: _572  and  _573
REMARK  224  A    between atoms: _582  and  _584
REMARK  225  A    between atoms: _584  and  _585
REMARK  226  A    between atoms: _587  and  _589
REMARK  227  A    between atoms: _589  and  _590
REMARK  228  A    between atoms: _589  and  _592
REMARK  229  A    between atoms: _592  and  _593
REMARK  230  A    between atoms: _598  and  _600
REMARK  231  A    between atoms: _600  and  _601
REMARK  232  A    between atoms: _603  and  _605
REMARK  233  A    between atoms: _605  and  _606
REMARK  234  A    between atoms: _609  and  _611
REMARK  235  A    between atoms: _611  and  _612
REMARK  236  A    between atoms: _614  and  _616
REMARK  237  A    between atoms: _616  and  _617
REMARK  238  A    between atoms: _619  and  _621
REMARK  239  A    between atoms: _621  and  _622
REMARK  240  A    between atoms: _621  and  _624
REMARK  241  A    between atoms: _624  and  _625
REMARK  242  A    between atoms: _625  and  _626
REMARK  243  A    between atoms: _626  and  _627
REMARK  244  A    between atoms: _636  and  _638
REMARK  245  A    between atoms: _638  and  _639
REMARK  246  A    between atoms: _638  and  _641
REMARK  247  A    between atoms: _641  and  _642
REMARK  248  A    between atoms: _645  and  _647
REMARK  249  A    between atoms: _647  and  _648
REMARK  250  A    between atoms: _647  and  _650
REMARK  251  A    between atoms: _650  and  _651
REMARK                            x       y       z     vdW  Elec       q    Type
REMARK                         _______ _______ _______ _____ _____    ______ ____
ROOT
ATOM      1  C   ASP A   3      10.539  15.606  50.033  0.00  0.00    +0.241 C 
ATOM      2  O   ASP A   3      10.819  14.601  50.691  0.00  0.00    -0.273 OA
ATOM      3  N   ALA A   4       9.687  15.612  49.005  0.00  0.00    -0.297 N 
ATOM      4  H   ALA A   4       9.465  16.519  48.546  0.00  0.00    +0.150 HD
ENDROOT
BRANCH   3   5
ATOM      5  CA  ALA A   4       9.052  14.395  48.497  0.00  0.00    +0.149 C 
ATOM      6  CB  ALA A   4      10.088  13.585  47.679  0.00  0.00    +0.031 C 
BRANCH   5   7
ATOM      7  C   ALA A   4       8.394  13.515  49.567  0.00  0.00    +0.241 C 
ATOM      8  N   SER A   5       7.670  14.147  50.496  0.00  0.00    -0.295 N 
ATOM      9  H   SER A   5       7.578  15.182  50.455  0.00  0.00    +0.150 HD
ATOM     10  O   ALA A   4       8.593  12.296  49.583  0.00  0.00    -0.273 OA
BRANCH   8  11
ATOM     11  CA  SER A   5       7.005  13.409  51.570  0.00  0.00    +0.178 C 
BRANCH  11  12
ATOM     12  C   SER A   5       5.938  12.443  51.123  0.00  0.00    +0.243 C 
ATOM     13  O   SER A   5       5.740  11.404  51.762  0.00  0.00    -0.273 OA
ATOM     14  N   LYS A   6       5.302  12.746  49.991  0.00  0.00    -0.297 N 
ATOM     15  H   LYS A   6       5.541  13.631  49.499  0.00  0.00    +0.150 HD
BRANCH  14  16
ATOM     16  CA  LYS A   6       4.276  11.869  49.419  0.00  0.00    +0.149 C 
BRANCH  16  17
ATOM     17  C   LYS A   6       4.874  10.502  49.084  0.00  0.00    +0.241 C 
ATOM     18  O   LYS A   6       4.195   9.481  49.156  0.00  0.00    -0.273 OA
ATOM     19  N   HIS A   7       6.171  10.506  48.797  0.00  0.00    -0.298 N 
ATOM     20  H   HIS A   7       6.689  11.407  48.843  0.00  0.00    +0.150 HD
BRANCH  19  21
ATOM     21  CA  HIS A   7       6.897   9.304  48.422  0.00  0.00    +0.143 C 
BRANCH  21  22
ATOM     22  C   HIS A   7       7.457   8.498  49.576  0.00  0.00    +0.227 C 
ATOM     23  O   HIS A   7       8.245   7.566  49.377  0.00  0.00    -0.286 OA
ENDBRANCH  21  22
BRANCH  21  24
ATOM     24  CB  HIS A   7       7.972   9.667  47.404  0.00  0.00    +0.075 C 
BRANCH  24  25
ATOM     25  CG  HIS A   7       7.419  10.387  46.222  0.00  0.00    +0.082 A 
ATOM     26  CD2 HIS A   7       7.345  11.708  45.938  0.00  0.00    +0.115 A 
ATOM     27  NE2 HIS A   7       6.602  11.830  44.789  0.00  0.00    -0.221 NA
ATOM     28  CE1 HIS A   7       6.241  10.630  44.380  0.00  0.00    +0.199 A 
ATOM     29  ND1 HIS A   7       6.725   9.738  45.227  0.00  0.00    -0.227 NA
ENDBRANCH  24  25
ENDBRANCH  21  24
ENDBRANCH  19  21
ENDBRANCH  16  17
BRANCH  16  30
ATOM     30  CB  LYS A   6       3.681  12.475  48.139  0.00  0.00    +0.029 C 
BRANCH  30  31
ATOM     31  CG  LYS A   6       2.677  11.545  47.424  0.00  0.00    +0.000 C 
BRANCH  31  32
ATOM     32  CD  LYS A   6       2.301  11.978  46.033  0.00  0.00    -0.024 C 
BRANCH  32  33
ATOM     33  CE  LYS A   6       1.248  13.050  46.064  0.00  0.00    -0.086 C 
BRANCH  33  34
ATOM     34  NZ  LYS A   6       0.756  13.387  44.701  0.00  0.00    +0.380 N 
ATOM     35  HZ1 LYS A   6       0.032  14.130  44.769  0.00  0.00    -0.089 HD
ATOM     36  HZ2 LYS A   6       0.344  12.539  44.263  0.00  0.00    -0.089 HD
ATOM     37  HZ3 LYS A   6       1.550  13.727  44.121  0.00  0.00    -0.089 HD
ENDBRANCH  33  34
ENDBRANCH  32  33
ENDBRANCH  31  32
ENDBRANCH  30  31
ENDBRANCH  16  30
ENDBRANCH  14  16
ENDBRANCH  11  12
BRANCH  11  38
ATOM     38  CB  SER A   5       6.442  14.337  52.615  0.00  0.00    +0.166 C 
BRANCH  38  39
ATOM     39  OG  SER A   5       7.469  14.964  53.353  0.00  0.00    -0.380 OA
ATOM     40  H   SER A   5       8.041  15.490  52.739  0.00  0.00    +0.211 HD
ENDBRANCH  38  39
ENDBRANCH  11  38
ENDBRANCH   8  11
ENDBRANCH   5   7
ENDBRANCH   3   5
BRANCH   1  41
ATOM     41  CA  ASP A   3      11.158  16.946  50.399  0.00  0.00    +0.160 C 
BRANCH  41  44
ATOM     42  C   LEU A   2      10.258  17.086  52.675  0.00  0.00    +0.241 C 
ATOM     43  O   LEU A   2       9.078  16.969  52.313  0.00  0.00    -0.273 OA
ATOM     44  N   ASP A   3      11.299  17.104  51.845  0.00  0.00    -0.297 N 
ATOM     45  H   ASP A   3      12.251  17.236  52.242  0.00  0.00    +0.150 HD
BRANCH  42  46
ATOM     46  CA  LEU A   2      10.605  17.283  54.124  0.00  0.00    +0.149 C 
BRANCH  46  48
ATOM     47  C   ARG A   1      11.326  19.578  54.357  0.00  0.00    +0.238 C 
ATOM     48  N   LEU A   2      10.363  18.671  54.488  0.00  0.00    -0.297 N 
ATOM     49  H   LEU A   2       9.431  18.955  54.853  0.00  0.00    +0.150 HD
ATOM     50  O   ARG A   1      12.482  19.293  54.024  0.00  0.00    -0.274 OA
BRANCH  47  51
ATOM     51  CA  ARG A   1      10.988  21.014  54.735  0.00  0.00    +0.145 C 
BRANCH  51  52
ATOM     52  N   ARG A   1      11.958  21.208  55.798  0.00  0.00    -0.238 NA
ATOM     53  H   ARG A   1      12.937  21.450  55.544  0.00  0.00    +0.142 HD
ENDBRANCH  51  52
BRANCH  51  54
ATOM     54  CB  ARG A   1      11.279  21.896  53.521  0.00  0.00    +0.030 C 
BRANCH  54  55
ATOM     55  CG  ARG A   1      10.361  21.597  52.321  0.00  0.00    +0.045 C 
BRANCH  55  56
ATOM     56  CD  ARG A   1      10.962  22.064  51.029  0.00  0.00    +0.174 C 
BRANCH  56  57
ATOM     57  NE  ARG A   1      10.104  21.761  49.883  0.00  0.00    -0.265 N 
ATOM     58  HE  ARG A   1       9.180  22.236  49.837  0.00  0.00    +0.259 HD
ATOM     59  CZ  ARG A   1      10.415  20.924  48.894  0.00  0.00    +0.342 C 
ATOM     60  NH2 ARG A   1      11.576  20.278  48.882  0.00  0.00    -0.292 N 
ATOM     61 HH21 ARG A   1      12.259  20.422  49.653  0.00  0.00    +0.255 HD
ATOM     62 HH22 ARG A   1      11.802  19.628  48.102  0.00  0.00    +0.255 HD
ATOM     63  NH1 ARG A   1       9.559  20.740  47.901  0.00  0.00    -0.292 N 
ATOM     64 HH11 ARG A   1       8.651  21.247  47.896  0.00  0.00    +0.255 HD
ATOM     65 HH12 ARG A   1       9.795  20.088  47.125  0.00  0.00    +0.255 HD
ENDBRANCH  56  57
ENDBRANCH  55  56
ENDBRANCH  54  55
ENDBRANCH  51  54
ENDBRANCH  47  51
ENDBRANCH  46  48
BRANCH  46  66
ATOM     66  CB  LEU A   2       9.830  16.318  55.020  0.00  0.00    +0.029 C 
BRANCH  66  67
ATOM     67  CG  LEU A   2      10.121  16.393  56.515  0.00  0.00    +0.002 C 
ATOM     68  CD2 LEU A   2       9.479  15.211  57.203  0.00  0.00    +0.000 C 
ATOM     69  CD1 LEU A   2      11.625  16.396  56.780  0.00  0.00    +0.000 C 
ENDBRANCH  66  67
ENDBRANCH  46  66
ENDBRANCH  42  46
ENDBRANCH  41  44
BRANCH  41  70
ATOM     70  CB  ASP A   3      12.538  17.059  49.736  0.00  0.00    +0.143 C 
BRANCH  70  71
ATOM     71  CG  ASP A   3      12.491  16.842  48.240  0.00  0.00    +0.367 C 
ATOM     72  OD2 ASP A   3      13.020  15.816  47.751  0.00  0.00    -0.246 OA
ATOM     73  OD1 ASP A   3      11.874  17.682  47.568  0.00  0.00    -0.246 OA
ENDBRANCH  70  71
ENDBRANCH  41  70
ENDBRANCH   1  41
TORSDOF 31
REMARK  Name = ../refined-set-2016/1xd0/1xd0_pocket.pdb
REMARK  251 active torsions:
REMARK  status: ('A' for Active; 'I' for Inactive)
REMARK    1  A    between atoms: _1  and  _3
REMARK    2  A    between atoms: _3  and  _4
REMARK    3  A    between atoms: _3  and  _6
REMARK    4  A    between atoms: _6  and  _7
REMARK    5  A    between atoms: _13  and  _15
REMARK    6  A    between atoms: _15  and  _16
REMARK    7  A    between atoms: _15  and  _18
REMARK    8  A    between atoms: _18  and  _19
REMARK    9  A    between atoms: _19  and  _20
REMARK   10  A    between atoms: _26  and  _27
REMARK   11  A    between atoms: _32  and  _34
REMARK   12  A    between atoms: _34  and  _35
REMARK   13  A    between atoms: _34  and  _37
REMARK   14  A    between atoms: _37  and  _38
REMARK   15  A    between atoms: _43  and  _45
REMARK   16  A    between atoms: _45  and  _46
REMARK   17  A    between atoms: _45  and  _48
REMARK   18  A    between atoms: _51  and  _53
REMARK   19  A    between atoms: _53  and  _54
REMARK   20  A    between atoms: _53  and  _56
REMARK   21  A    between atoms: _56  and  _57
REMARK   22  A    between atoms: _61  and  _62
REMARK   23  A    between atoms: _68  and  _69
REMARK   24  A    between atoms: _74  and  _76
REMARK   25  A    between atoms: _76  and  _77
REMARK   26  A    between atoms: _76  and  _79
REMARK   27  A    between atoms: _79  and  _80
REMARK   28  A    between atoms: _90  and  _92
REMARK   29  A    between atoms: _92  and  _93
REMARK   30  A    between atoms: _92  and  _95
REMARK   31  A    between atoms: _95  and  _96
REMARK   32  A    between atoms: _106  and  _108
REMARK   33  A    between atoms: _108  and  _109
REMARK   34  A    between atoms: _108  and  _111
REMARK   35  A    between atoms: _111  and  _112
REMARK   36  A    between atoms: _112  and  _113
REMARK   37  A    between atoms: _116  and  _118
REMARK   38  A    between atoms: _118  and  _119
REMARK   39  A    between atoms: _118  and  _121
REMARK   40  A    between atoms: _121  and  _122
REMARK   41  A    between atoms: _122  and  _123
REMARK   42  A    between atoms: _123  and  _124
REMARK   43  A    between atoms: _133  and  _135
REMARK   44  A    between atoms: _135  and  _136
REMARK   45  A    between atoms: _135  and  _138
REMARK   46  A    between atoms: _138  and  _139
REMARK   47  A    between atoms: _144  and  _145
REMARK   48  A    between atoms: _147  and  _149
REMARK   49  A    between atoms: _149  and  _150
REMARK   50  A    between atoms: _149  and  _152
REMARK   51  A    between atoms: _152  and  _153
REMARK   52  A    between atoms: _153  and  _154
REMARK   53  A    between atoms: _160  and  _161
REMARK   54  A    between atoms: _166  and  _168
REMARK   55  A    between atoms: _168  and  _169
REMARK   56  A    between atoms: _168  and  _171
REMARK   57  A    between atoms: _171  and  _172
REMARK   58  A    between atoms: _175  and  _177
REMARK   59  A    between atoms: _177  and  _178
REMARK   60  A    between atoms: _181  and  _183
REMARK   61  A    between atoms: _183  and  _184
REMARK   62  A    between atoms: _183  and  _186
REMARK   63  A    between atoms: _189  and  _191
REMARK   64  A    between atoms: _191  and  _192
REMARK   65  A    between atoms: _191  and  _194
REMARK   66  A    between atoms: _194  and  _195
REMARK   67  A    between atoms: _198  and  _200
REMARK   68  A    between atoms: _200  and  _201
REMARK   69  A    between atoms: _200  and  _203
REMARK   70  A    between atoms: _203  and  _204
REMARK   71  A    between atoms: _209  and  _211
REMARK   72  A    between atoms: _211  and  _212
REMARK   73  A    between atoms: _211  and  _214
REMARK   74  A    between atoms: _214  and  _215
REMARK   75  A    between atoms: _220  and  _222
REMARK   76  A    between atoms: _222  and  _223
REMARK   77  A    between atoms: _222  and  _225
REMARK   78  A    between atoms: _225  and  _226
REMARK   79  A    between atoms: _226  and  _227
REMARK   80  A    between atoms: _229  and  _231
REMARK   81  A    between atoms: _231  and  _232
REMARK   82  A    between atoms: _231  and  _234
REMARK   83  A    between atoms: _236  and  _238
REMARK   84  A    between atoms: _238  and  _239
REMARK   85  A    between atoms: _241  and  _243
REMARK   86  A    between atoms: _243  and  _244
REMARK   87  A    between atoms: _243  and  _246
REMARK   88  A    between atoms: _246  and  _247
REMARK   89  A    between atoms: _252  and  _254
REMARK   90  A    between atoms: _254  and  _255
REMARK   91  A    between atoms: _258  and  _260
REMARK   92  A    between atoms: _260  and  _261
REMARK   93  A    between atoms: _260  and  _263
REMARK   94  A    between atoms: _266  and  _268
REMARK   95  A    between atoms: _268  and  _269
REMARK   96  A    between atoms: _268  and  _271
REMARK   97  A    between atoms: _271  and  _272
REMARK   98  A    between atoms: _275  and  _277
REMARK   99  A    between atoms: _277  and  _278
REMARK  100  A    between atoms: _277  and  _280
REMARK  101  A    between atoms: _280  and  _281
REMARK  102  A    between atoms: _284  and  _286
REMARK  103  A    between atoms: _286  and  _287
REMARK  104  A    between atoms: _286  and  _289
REMARK  105  A    between atoms: _289  and  _290
REMARK  106  A    between atoms: _295  and  _296
REMARK  107  A    between atoms: _298  and  _300
REMARK  108  A    between atoms: _300  and  _301
REMARK  109  A    between atoms: _300  and  _303
REMARK  110  A    between atoms: _306  and  _308
REMARK  111  A    between atoms: _308  and  _309
REMARK  112  A    between atoms: _308  and  _311
REMARK  113  A    between atoms: _311  and  _312
REMARK  114  A    between atoms: _312  and  _313
REMARK  115  A    between atoms: _313  and  _314
REMARK  116  A    between atoms: _323  and  _325
REMARK  117  A    between atoms: _325  and  _326
REMARK  118  A    between atoms: _325  and  _328
REMARK  119  A    between atoms: _328  and  _329
REMARK  120  A    between atoms: _332  and  _334
REMARK  121  A    between atoms: _334  and  _335
REMARK  122  A    between atoms: _334  and  _337
REMARK  123  A    between atoms: _337  and  _338
REMARK  124  A    between atoms: _341  and  _343
REMARK  125  A    between atoms: _343  and  _344
REMARK  126  A    between atoms: _346  and  _348
REMARK  127  A    between atoms: _348  and  _349
REMARK  128  A    between atoms: _348  and  _351
REMARK  129  A    between atoms: _351  and  _352
REMARK  130  A    between atoms: _355  and  _357
REMARK  131  A    between atoms: _357  and  _358
REMARK  132  A    between atoms: _357  and  _360
REMARK  133  A    between atoms: _360  and  _361
REMARK  134  A    between atoms: _364  and  _366
REMARK  135  A    between atoms: _366  and  _367
REMARK  136  A    between atoms: _366  and  _369
REMARK  137  A    between atoms: _369  and  _370
REMARK  138  A    between atoms: _370  and  _371
REMARK  139  A    between atoms: _371  and  _372
REMARK  140  A    between atoms: _381  and  _383
REMARK  141  A    between atoms: _383  and  _384
REMARK  142  A    between atoms: _383  and  _386
REMARK  143  A    between atoms: _386  and  _387
REMARK  144  A    between atoms: _390  and  _392
REMARK  145  A    between atoms: _392  and  _393
REMARK  146  A    between atoms: _392  and  _395
REMARK  147  A    between atoms: _395  and  _396
REMARK  148  A    between atoms: _399  and  _401
REMARK  149  A    between atoms: _401  and  _402
REMARK  150  A    between atoms: _405  and  _407
REMARK  151  A    between atoms: _407  and  _408
REMARK  152  A    between atoms: _407  and  _410
REMARK  153  A    between atoms: _410  and  _411
REMARK  154  A    between atoms: _413  and  _415
REMARK  155  A    between atoms: _415  and  _416
REMARK  156  A    between atoms: _415  and  _418
REMARK  157  A    between atoms: _418  and  _419
REMARK  158  A    between atoms: _419  and  _420
REMARK  159  A    between atoms: _420  and  _421
REMARK  160  A    between atoms: _421  and  _422
REMARK  161  A    between atoms: _426  and  _428
REMARK  162  A    between atoms: _428  and  _429
REMARK  163  A    between atoms: _428  and  _431
REMARK  164  A    between atoms: _431  and  _432
REMARK  165  A    between atoms: _437  and  _439
REMARK  166  A    between atoms: _439  and  _440
REMARK  167  A    between atoms: _439  and  _442
REMARK  168  A    between atoms: _442  and  _443
REMARK  169  A    between atoms: _443  and  _444
REMARK  170  A    between atoms: _447  and  _449
REMARK  171  A    between atoms: _449  and  _450
REMARK  172  A    between atoms: _449  and  _452
REMARK  173  A    between atoms: _455  and  _457
REMARK  174  A    between atoms: _457  and  _458
REMARK  175  A    between atoms: _457  and  _460
REMARK  176  A    between atoms: _460  and  _461
REMARK  177  A    between atoms: _464  and  _466
REMARK  178  A    between atoms: _466  and  _467
REMARK  179  A    between atoms: _466  and  _469
REMARK  180  A    between atoms: _469  and  _470
REMARK  181  A    between atoms: _473  and  _475
REMARK  182  A    between atoms: _475  and  _476
REMARK  183  A    between atoms: _475  and  _478
REMARK  184  A    between atoms: _478  and  _479
REMARK  185  A    between atoms: _482  and  _484
REMARK  186  A    between atoms: _484  and  _485
REMARK  187  A    between atoms: _487  and  _489
REMARK  188  A    between atoms: _489  and  _490
REMARK  189  A    between atoms: _492  and  _494
REMARK  190  A    between atoms: _494  and  _495
REMARK  191  A    between atoms: _494  and  _497
REMARK  192  A    between atoms: _497  and  _498
REMARK  193  A    between atoms: _498  and  _499
REMARK  194  A    between atoms: _502  and  _504
REMARK  195  A    between atoms: _504  and  _505
REMARK  196  A    between atoms: _504  and  _507
REMARK  197  A    between atoms: _507  and  _508
REMARK  198  A    between atoms: _511  and  _513
REMARK  199  A    between atoms: _513  and  _514
REMARK  200  A    between atoms: _513  and  _516
REMARK  201  A    between atoms: _516  and  _517
REMARK  202  A    between atoms: _523  and  _525
REMARK  203  A    between atoms: _525  and  _526
REMARK  204  A    between atoms: _525  and  _528
REMARK  205  A    between atoms: _528  and  _529
REMARK  206  A    between atoms: _534  and  _536
REMARK  207  A    between atoms: _536  and  _537
REMARK  208  A    between atoms: _536  and  _539
REMARK  209  A    between atoms: _539  and  _540
REMARK  210  A    between atoms: _545  and  _547
REMARK  211  A    between atoms: _547  and  _548
REMARK  212  A    between atoms: _547  and  _550
REMARK  213  A    between atoms: _550  and  _551
REMARK  214  A    between atoms: _554  and  _556
REMARK  215  A    between atoms: _556  and  _557
REMARK  216  A    between atoms: _556  and  _559
REMARK  217  A    between atoms: _559  and  _560
REMARK  218  A    between atoms: _565  and  _567
REMARK  219  A    between atoms: _567  and  _568
REMARK  220  A    between atoms: _567  and  _570
REMARK  221  A    between atoms: _570  and  _571
REMARK  222  A    between atoms: _571  and  _572
REMARK  223  A    between atoms: _572  and  _573
REMARK  224  A    between atoms: _582  and  _584
REMARK  225  A    between atoms: _584  and  _585
REMARK  226  A    between atoms: _587  and  _589
REMARK  227  A    between atoms: _589  and  _590
REMARK  228  A    between atoms: _589  and  _592
REMARK  229  A    between atoms: _592  and  _593
REMARK  230  A    between atoms: _598  and  _600
REMARK  231  A    between atoms: _600  and  _601
REMARK  232  A    between atoms: _603  and  _605
REMARK  233  A    between atoms: _605  and  _606
REMARK  234  A    between atoms: _609  and  _611
REMARK  235  A    between atoms: _611  and  _612
REMARK  236  A    between atoms: _614  and  _616
REMARK  237  A    between atoms: _616  and  _617
REMARK  238  A    between atoms: _619  and  _621
REMARK  239  A    between atoms: _621  and  _622
REMARK  240  A    between atoms: _621  and  _624
REMARK  241  A    between atoms: _624  and  _625
REMARK  242  A    between atoms: _625  and  _626
REMARK  243  A    between atoms: _626  and  _627
REMARK  244  A    between atoms: _636  and  _638
REMARK  245  A    between atoms: _638  and  _639
REMARK  246  A    between atoms: _638  and  _641
REMARK  247  A    between atoms: _641  and  _642
REMARK  248  A    between atoms: _645  and  _647
REMARK  249  A    between atoms: _647  and  _648
REMARK  250  A    between atoms: _647  and  _650
REMARK  251  A    between atoms: _650  and  _651
REMARK                            x       y       z     vdW  Elec       q    Type
REMARK                         _______ _______ _______ _____ _____    ______ ____
ROOT
ATOM      1  CA  ASP A   4      -2.501  16.914  46.895  0.00  0.00    +0.160 C 
ENDROOT
BRANCH   1   3
ATOM      2  C   ILE A   3      -0.139  16.913  46.344  0.00  0.00    +0.241 C 
ATOM      3  N   ASP A   4      -1.186  17.521  46.887  0.00  0.00    -0.297 N 
ATOM      4  H   ASP A   4      -1.059  18.459  47.318  0.00  0.00    +0.150 HD
ATOM      5  O   ILE A   3      -0.199  15.807  45.815  0.00  0.00    -0.273 OA
BRANCH   2   6
ATOM      6  CA  ILE A   3       1.182  17.666  46.423  0.00  0.00    +0.149 C 
BRANCH   6   9
ATOM      7  C   VAL A   2       1.955  17.411  48.711  0.00  0.00    +0.241 C 
ATOM      8  O   VAL A   2       1.293  18.370  49.110  0.00  0.00    -0.273 OA
ATOM      9  N   ILE A   3       1.989  17.016  47.441  0.00  0.00    -0.297 N 
ATOM     10  H   ILE A   3       2.607  16.224  47.171  0.00  0.00    +0.150 HD
BRANCH   7  11
ATOM     11  CA  VAL A   2       2.829  16.635  49.672  0.00  0.00    +0.148 C 
BRANCH  11  13
ATOM     12  C   GLU A   1       5.071  17.411  50.209  0.00  0.00    +0.238 C 
ATOM     13  N   VAL A   2       3.763  17.626  50.179  0.00  0.00    -0.297 N 
ATOM     14  H   VAL A   2       3.394  18.533  50.530  0.00  0.00    +0.150 HD
ATOM     15  O   GLU A   1       5.597  16.330  49.926  0.00  0.00    -0.274 OA
BRANCH  12  16
ATOM     16  CA  GLU A   1       5.896  18.565  50.731  0.00  0.00    +0.145 C 
BRANCH  16  17
ATOM     17  N   GLU A   1       6.325  18.274  52.095  0.00  0.00    -0.238 NA
ATOM     18  H   GLU A   1       7.290  17.930  52.272  0.00  0.00    +0.142 HD
ENDBRANCH  16  17
BRANCH  16  19
ATOM     19  CB  GLU A   1       7.056  18.828  49.774  0.00  0.00    +0.038 C 
BRANCH  19  20
ATOM     20  CG  GLU A   1       6.571  19.224  48.356  0.00  0.00    +0.116 C 
BRANCH  20  21
ATOM     21  CD  GLU A   1       7.277  18.489  47.237  0.00  0.00    +0.365 C 
ATOM     22  OE2 GLU A   1       7.881  17.425  47.482  0.00  0.00    -0.246 OA
ATOM     23  OE1 GLU A   1       7.236  18.982  46.092  0.00  0.00    -0.246 OA
ENDBRANCH  20  21
ENDBRANCH  19  20
ENDBRANCH  16  19
ENDBRANCH  12  16
ENDBRANCH  11  13
BRANCH  11  24
ATOM     24  CB  VAL A   2       1.940  16.025  50.787  0.00  0.00    +0.027 C 
ATOM     25  CG2 VAL A   2       2.787  15.298  51.828  0.00  0.00    +0.002 C 
ATOM     26  CG1 VAL A   2       0.927  15.047  50.183  0.00  0.00    +0.002 C 
ENDBRANCH  11  24
ENDBRANCH   7  11
ENDBRANCH   6   9
BRANCH   6  27
ATOM     27  CB  ILE A   3       1.893  17.681  45.055  0.00  0.00    +0.027 C 
ATOM     28  CG2 ILE A   3       1.007  18.355  44.021  0.00  0.00    +0.002 C 
BRANCH  27  29
ATOM     29  CG1 ILE A   3       3.252  18.381  45.176  0.00  0.00    +0.002 C 
ATOM     30  CD1 ILE A   3       4.093  18.394  43.920  0.00  0.00    +0.000 C 
ENDBRANCH  27  29
ENDBRANCH   6  27
ENDBRANCH   2   6
ENDBRANCH   1   3
BRANCH   1  31
ATOM     31  C   ASP A   4      -3.503  17.884  46.303  0.00  0.00    +0.241 C 
ATOM     32  O   ASP A   4      -3.985  18.786  46.988  0.00  0.00    -0.273 OA
ATOM     33  N   LEU A   5      -3.842  17.652  45.037  0.00  0.00    -0.297 N 
ATOM     34  H   LEU A   5      -3.394  16.861  44.531  0.00  0.00    +0.150 HD
BRANCH  33  35
ATOM     35  CA  LEU A   5      -4.819  18.471  44.342  0.00  0.00    +0.149 C 
BRANCH  35  36
ATOM     36  C   LEU A   5      -6.194  17.810  44.305  0.00  0.00    +0.241 C 
ATOM     37  N   GLY A   6      -6.317  16.679  45.002  0.00  0.00    -0.295 N 
ATOM     38  H   GLY A   6      -5.486  16.289  45.491  0.00  0.00    +0.150 HD
ATOM     39  O   LEU A   5      -7.106  18.303  43.641  0.00  0.00    -0.273 OA
BRANCH  37  40
ATOM     40  CA  GLY A   6      -7.588  15.982  45.091  0.00  0.00    +0.176 C 
BRANCH  40  41
ATOM     41  C   GLY A   6      -7.891  14.704  44.326  0.00  0.00    +0.243 C 
ATOM     42  O   GLY A   6      -8.723  13.925  44.799  0.00  0.00    -0.273 OA
ATOM     43  N   GLY A   7      -7.240  14.458  43.189  0.00  0.00    -0.295 N 
ATOM     44  H   GLY A   7      -6.511  15.118  42.852  0.00  0.00    +0.150 HD
BRANCH  43  45
ATOM     45  CA  GLY A   7      -7.555  13.259  42.420  0.00  0.00    +0.176 C 
BRANCH  45  46
ATOM     46  C   GLY A   7      -6.716  12.010  42.606  0.00  0.00    +0.243 C 
ATOM     47  N   GLU A   8      -6.122  11.837  43.784  0.00  0.00    -0.298 N 
ATOM     48  H   GLU A   8      -6.271  12.540  44.536  0.00  0.00    +0.150 HD
ATOM     49  O   GLY A   7      -6.615  11.207  41.675  0.00  0.00    -0.273 OA
BRANCH  47  50
ATOM     50  CA  GLU A   8      -5.266  10.684  44.047  0.00  0.00    +0.137 C 
BRANCH  50  51
ATOM     51  C   GLU A   8      -5.627   9.960  45.340  0.00  0.00    +0.227 C 
ATOM     52  O   GLU A   8      -6.283  10.547  46.213  0.00  0.00    -0.286 OA
ENDBRANCH  50  51
BRANCH  50  53
ATOM     53  CB  GLU A   8      -3.800  11.141  44.079  0.00  0.00    +0.039 C 
BRANCH  53  54
ATOM     54  CG  GLU A   8      -3.201  11.408  42.716  0.00  0.00    +0.116 C 
BRANCH  54  55
ATOM     55  CD  GLU A   8      -1.872  12.106  42.801  0.00  0.00    +0.365 C 
ATOM     56  OE2 GLU A   8      -1.100  11.819  43.737  0.00  0.00    -0.246 OA
ATOM     57  OE1 GLU A   8      -1.595  12.943  41.921  0.00  0.00    -0.246 OA
ENDBRANCH  54  55
ENDBRANCH  53  54
ENDBRANCH  50  53
ENDBRANCH  47  50
ENDBRANCH  45  46
ENDBRANCH  43  45
ENDBRANCH  40  41
ENDBRANCH  37  40
ENDBRANCH  35  36
BRANCH  35  58
ATOM     58  CB  LEU A   5      -4.320  18.849  42.947  0.00  0.00    +0.029 C 
BRANCH  58  59
ATOM     59  CG  LEU A   5      -3.013  19.652  42.931  0.00  0.00    +0.002 C 
ATOM     60  CD2 LEU A   5      -3.143  20.917  43.774  0.00  0.00    +0.000 C 
ATOM     61  CD1 LEU A   5      -2.641  20.000  41.514  0.00  0.00    +0.000 C 
ENDBRANCH  58  59
ENDBRANCH  35  58
ENDBRANCH  33  35
ENDBRANCH   1  31
BRANCH   1  62
ATOM     62  CB  ASP A   4      -2.893  16.506  48.332  0.00  0.00    +0.143 C 
BRANCH  62  63
ATOM     63  CG  ASP A   4      -4.308  15.912  48.431  0.00  0.00    +0.367 C 
ATOM     64  OD2 ASP A   4      -4.770  15.697  49.567  0.00  0.00    -0.246 OA
ATOM     65  OD1 ASP A   4      -4.967  15.679  47.392  0.00  0.00    -0.246 OA
ENDBRANCH  62  63
ENDBRANCH   1  62
TORSDOF 29
REMARK  Name = ../refined-set-2016/1xd0/1xd0_pocket.pdb
REMARK  251 active torsions:
REMARK  status: ('A' for Active; 'I' for Inactive)
REMARK    1  A    between atoms: _1  and  _3
REMARK    2  A    between atoms: _3  and  _4
REMARK    3  A    between atoms: _3  and  _6
REMARK    4  A    between atoms: _6  and  _7
REMARK    5  A    between atoms: _13  and  _15
REMARK    6  A    between atoms: _15  and  _16
REMARK    7  A    between atoms: _15  and  _18
REMARK    8  A    between atoms: _18  and  _19
REMARK    9  A    between atoms: _19  and  _20
REMARK   10  A    between atoms: _26  and  _27
REMARK   11  A    between atoms: _32  and  _34
REMARK   12  A    between atoms: _34  and  _35
REMARK   13  A    between atoms: _34  and  _37
REMARK   14  A    between atoms: _37  and  _38
REMARK   15  A    between atoms: _43  and  _45
REMARK   16  A    between atoms: _45  and  _46
REMARK   17  A    between atoms: _45  and  _48
REMARK   18  A    between atoms: _51  and  _53
REMARK   19  A    between atoms: _53  and  _54
REMARK   20  A    between atoms: _53  and  _56
REMARK   21  A    between atoms: _56  and  _57
REMARK   22  A    between atoms: _61  and  _62
REMARK   23  A    between atoms: _68  and  _69
REMARK   24  A    between atoms: _74  and  _76
REMARK   25  A    between atoms: _76  and  _77
REMARK   26  A    between atoms: _76  and  _79
REMARK   27  A    between atoms: _79  and  _80
REMARK   28  A    between atoms: _90  and  _92
REMARK   29  A    between atoms: _92  and  _93
REMARK   30  A    between atoms: _92  and  _95
REMARK   31  A    between atoms: _95  and  _96
REMARK   32  A    between atoms: _106  and  _108
REMARK   33  A    between atoms: _108  and  _109
REMARK   34  A    between atoms: _108  and  _111
REMARK   35  A    between atoms: _111  and  _112
REMARK   36  A    between atoms: _112  and  _113
REMARK   37  A    between atoms: _116  and  _118
REMARK   38  A    between atoms: _118  and  _119
REMARK   39  A    between atoms: _118  and  _121
REMARK   40  A    between atoms: _121  and  _122
REMARK   41  A    between atoms: _122  and  _123
REMARK   42  A    between atoms: _123  and  _124
REMARK   43  A    between atoms: _133  and  _135
REMARK   44  A    between atoms: _135  and  _136
REMARK   45  A    between atoms: _135  and  _138
REMARK   46  A    between atoms: _138  and  _139
REMARK   47  A    between atoms: _144  and  _145
REMARK   48  A    between atoms: _147  and  _149
REMARK   49  A    between atoms: _149  and  _150
REMARK   50  A    between atoms: _149  and  _152
REMARK   51  A    between atoms: _152  and  _153
REMARK   52  A    between atoms: _153  and  _154
REMARK   53  A    between atoms: _160  and  _161
REMARK   54  A    between atoms: _166  and  _168
REMARK   55  A    between atoms: _168  and  _169
REMARK   56  A    between atoms: _168  and  _171
REMARK   57  A    between atoms: _171  and  _172
REMARK   58  A    between atoms: _175  and  _177
REMARK   59  A    between atoms: _177  and  _178
REMARK   60  A    between atoms: _181  and  _183
REMARK   61  A    between atoms: _183  and  _184
REMARK   62  A    between atoms: _183  and  _186
REMARK   63  A    between atoms: _189  and  _191
REMARK   64  A    between atoms: _191  and  _192
REMARK   65  A    between atoms: _191  and  _194
REMARK   66  A    between atoms: _194  and  _195
REMARK   67  A    between atoms: _198  and  _200
REMARK   68  A    between atoms: _200  and  _201
REMARK   69  A    between atoms: _200  and  _203
REMARK   70  A    between atoms: _203  and  _204
REMARK   71  A    between atoms: _209  and  _211
REMARK   72  A    between atoms: _211  and  _212
REMARK   73  A    between atoms: _211  and  _214
REMARK   74  A    between atoms: _214  and  _215
REMARK   75  A    between atoms: _220  and  _222
REMARK   76  A    between atoms: _222  and  _223
REMARK   77  A    between atoms: _222  and  _225
REMARK   78  A    between atoms: _225  and  _226
REMARK   79  A    between atoms: _226  and  _227
REMARK   80  A    between atoms: _229  and  _231
REMARK   81  A    between atoms: _231  and  _232
REMARK   82  A    between atoms: _231  and  _234
REMARK   83  A    between atoms: _236  and  _238
REMARK   84  A    between atoms: _238  and  _239
REMARK   85  A    between atoms: _241  and  _243
REMARK   86  A    between atoms: _243  and  _244
REMARK   87  A    between atoms: _243  and  _246
REMARK   88  A    between atoms: _246  and  _247
REMARK   89  A    between atoms: _252  and  _254
REMARK   90  A    between atoms: _254  and  _255
REMARK   91  A    between atoms: _258  and  _260
REMARK   92  A    between atoms: _260  and  _261
REMARK   93  A    between atoms: _260  and  _263
REMARK   94  A    between atoms: _266  and  _268
REMARK   95  A    between atoms: _268  and  _269
REMARK   96  A    between atoms: _268  and  _271
REMARK   97  A    between atoms: _271  and  _272
REMARK   98  A    between atoms: _275  and  _277
REMARK   99  A    between atoms: _277  and  _278
REMARK  100  A    between atoms: _277  and  _280
REMARK  101  A    between atoms: _280  and  _281
REMARK  102  A    between atoms: _284  and  _286
REMARK  103  A    between atoms: _286  and  _287
REMARK  104  A    between atoms: _286  and  _289
REMARK  105  A    between atoms: _289  and  _290
REMARK  106  A    between atoms: _295  and  _296
REMARK  107  A    between atoms: _298  and  _300
REMARK  108  A    between atoms: _300  and  _301
REMARK  109  A    between atoms: _300  and  _303
REMARK  110  A    between atoms: _306  and  _308
REMARK  111  A    between atoms: _308  and  _309
REMARK  112  A    between atoms: _308  and  _311
REMARK  113  A    between atoms: _311  and  _312
REMARK  114  A    between atoms: _312  and  _313
REMARK  115  A    between atoms: _313  and  _314
REMARK  116  A    between atoms: _323  and  _325
REMARK  117  A    between atoms: _325  and  _326
REMARK  118  A    between atoms: _325  and  _328
REMARK  119  A    between atoms: _328  and  _329
REMARK  120  A    between atoms: _332  and  _334
REMARK  121  A    between atoms: _334  and  _335
REMARK  122  A    between atoms: _334  and  _337
REMARK  123  A    between atoms: _337  and  _338
REMARK  124  A    between atoms: _341  and  _343
REMARK  125  A    between atoms: _343  and  _344
REMARK  126  A    between atoms: _346  and  _348
REMARK  127  A    between atoms: _348  and  _349
REMARK  128  A    between atoms: _348  and  _351
REMARK  129  A    between atoms: _351  and  _352
REMARK  130  A    between atoms: _355  and  _357
REMARK  131  A    between atoms: _357  and  _358
REMARK  132  A    between atoms: _357  and  _360
REMARK  133  A    between atoms: _360  and  _361
REMARK  134  A    between atoms: _364  and  _366
REMARK  135  A    between atoms: _366  and  _367
REMARK  136  A    between atoms: _366  and  _369
REMARK  137  A    between atoms: _369  and  _370
REMARK  138  A    between atoms: _370  and  _371
REMARK  139  A    between atoms: _371  and  _372
REMARK  140  A    between atoms: _381  and  _383
REMARK  141  A    between atoms: _383  and  _384
REMARK  142  A    between atoms: _383  and  _386
REMARK  143  A    between atoms: _386  and  _387
REMARK  144  A    between atoms: _390  and  _392
REMARK  145  A    between atoms: _392  and  _393
REMARK  146  A    between atoms: _392  and  _395
REMARK  147  A    between atoms: _395  and  _396
REMARK  148  A    between atoms: _399  and  _401
REMARK  149  A    between atoms: _401  and  _402
REMARK  150  A    between atoms: _405  and  _407
REMARK  151  A    between atoms: _407  and  _408
REMARK  152  A    between atoms: _407  and  _410
REMARK  153  A    between atoms: _410  and  _411
REMARK  154  A    between atoms: _413  and  _415
REMARK  155  A    between atoms: _415  and  _416
REMARK  156  A    between atoms: _415  and  _418
REMARK  157  A    between atoms: _418  and  _419
REMARK  158  A    between atoms: _419  and  _420
REMARK  159  A    between atoms: _420  and  _421
REMARK  160  A    between atoms: _421  and  _422
REMARK  161  A    between atoms: _426  and  _428
REMARK  162  A    between atoms: _428  and  _429
REMARK  163  A    between atoms: _428  and  _431
REMARK  164  A    between atoms: _431  and  _432
REMARK  165  A    between atoms: _437  and  _439
REMARK  166  A    between atoms: _439  and  _440
REMARK  167  A    between atoms: _439  and  _442
REMARK  168  A    between atoms: _442  and  _443
REMARK  169  A    between atoms: _443  and  _444
REMARK  170  A    between atoms: _447  and  _449
REMARK  171  A    between atoms: _449  and  _450
REMARK  172  A    between atoms: _449  and  _452
REMARK  173  A    between atoms: _455  and  _457
REMARK  174  A    between atoms: _457  and  _458
REMARK  175  A    between atoms: _457  and  _460
REMARK  176  A    between atoms: _460  and  _461
REMARK  177  A    between atoms: _464  and  _466
REMARK  178  A    between atoms: _466  and  _467
REMARK  179  A    between atoms: _466  and  _469
REMARK  180  A    between atoms: _469  and  _470
REMARK  181  A    between atoms: _473  and  _475
REMARK  182  A    between atoms: _475  and  _476
REMARK  183  A    between atoms: _475  and  _478
REMARK  184  A    between atoms: _478  and  _479
REMARK  185  A    between atoms: _482  and  _484
REMARK  186  A    between atoms: _484  and  _485
REMARK  187  A    between atoms: _487  and  _489
REMARK  188  A    between atoms: _489  and  _490
REMARK  189  A    between atoms: _492  and  _494
REMARK  190  A    between atoms: _494  and  _495
REMARK  191  A    between atoms: _494  and  _497
REMARK  192  A    between atoms: _497  and  _498
REMARK  193  A    between atoms: _498  and  _499
REMARK  194  A    between atoms: _502  and  _504
REMARK  195  A    between atoms: _504  and  _505
REMARK  196  A    between atoms: _504  and  _507
REMARK  197  A    between atoms: _507  and  _508
REMARK  198  A    between atoms: _511  and  _513
REMARK  199  A    between atoms: _513  and  _514
REMARK  200  A    between atoms: _513  and  _516
REMARK  201  A    between atoms: _516  and  _517
REMARK  202  A    between atoms: _523  and  _525
REMARK  203  A    between atoms: _525  and  _526
REMARK  204  A    between atoms: _525  and  _528
REMARK  205  A    between atoms: _528  and  _529
REMARK  206  A    between atoms: _534  and  _536
REMARK  207  A    between atoms: _536  and  _537
REMARK  208  A    between atoms: _536  and  _539
REMARK  209  A    between atoms: _539  and  _540
REMARK  210  A    between atoms: _545  and  _547
REMARK  211  A    between atoms: _547  and  _548
REMARK  212  A    between atoms: _547  and  _550
REMARK  213  A    between atoms: _550  and  _551
REMARK  214  A    between atoms: _554  and  _556
REMARK  215  A    between atoms: _556  and  _557
REMARK  216  A    between atoms: _556  and  _559
REMARK  217  A    between atoms: _559  and  _560
REMARK  218  A    between atoms: _565  and  _567
REMARK  219  A    between atoms: _567  and  _568
REMARK  220  A    between atoms: _567  and  _570
REMARK  221  A    between atoms: _570  and  _571
REMARK  222  A    between atoms: _571  and  _572
REMARK  223  A    between atoms: _572  and  _573
REMARK  224  A    between atoms: _582  and  _584
REMARK  225  A    between atoms: _584  and  _585
REMARK  226  A    between atoms: _587  and  _589
REMARK  227  A    between atoms: _589  and  _590
REMARK  228  A    between atoms: _589  and  _592
REMARK  229  A    between atoms: _592  and  _593
REMARK  230  A    between atoms: _598  and  _600
REMARK  231  A    between atoms: _600  and  _601
REMARK  232  A    between atoms: _603  and  _605
REMARK  233  A    between atoms: _605  and  _606
REMARK  234  A    between atoms: _609  and  _611
REMARK  235  A    between atoms: _611  and  _612
REMARK  236  A    between atoms: _614  and  _616
REMARK  237  A    between atoms: _616  and  _617
REMARK  238  A    between atoms: _619  and  _621
REMARK  239  A    between atoms: _621  and  _622
REMARK  240  A    between atoms: _621  and  _624
REMARK  241  A    between atoms: _624  and  _625
REMARK  242  A    between atoms: _625  and  _626
REMARK  243  A    between atoms: _626  and  _627
REMARK  244  A    between atoms: _636  and  _638
REMARK  245  A    between atoms: _638  and  _639
REMARK  246  A    between atoms: _638  and  _641
REMARK  247  A    between atoms: _641  and  _642
REMARK  248  A    between atoms: _645  and  _647
REMARK  249  A    between atoms: _647  and  _648
REMARK  250  A    between atoms: _647  and  _650
REMARK  251  A    between atoms: _650  and  _651
REMARK                            x       y       z     vdW  Elec       q    Type
REMARK                         _______ _______ _______ _____ _____    ______ ____
ROOT
ATOM      1  CA  ILE A   1      -2.862   9.656  48.870  0.00  0.00    +0.133 C 
ENDROOT
BRANCH   1   2
ATOM      2  N   ILE A   1      -3.638   9.089  47.765  0.00  0.00    -0.239 NA
ATOM      3  H   ILE A   1      -3.283   9.203  46.794  0.00  0.00    +0.142 HD
ENDBRANCH   1   2
BRANCH   1   4
ATOM      4  C   ILE A   1      -3.401  11.048  49.205  0.00  0.00    +0.224 C 
ATOM      5  O   ILE A   1      -3.552  11.891  48.320  0.00  0.00    -0.287 OA
ENDBRANCH   1   4
BRANCH   1   6
ATOM      6  CB  ILE A   1      -1.349   9.729  48.531  0.00  0.00    +0.023 C 
ATOM      7  CG2 ILE A   1      -0.560  10.387  49.683  0.00  0.00    +0.002 C 
BRANCH   6   8
ATOM      8  CG1 ILE A   1      -0.808   8.319  48.285  0.00  0.00    +0.002 C 
ATOM      9  CD1 ILE A   1       0.592   8.275  47.750  0.00  0.00    +0.000 C 
ENDBRANCH   6   8
ENDBRANCH   1   6
TORSDOF 4
REMARK  Name = ../refined-set-2016/1xd0/1xd0_pocket.pdb
REMARK  251 active torsions:
REMARK  status: ('A' for Active; 'I' for Inactive)
REMARK    1  A    between atoms: _1  and  _3
REMARK    2  A    between atoms: _3  and  _4
REMARK    3  A    between atoms: _3  and  _6
REMARK    4  A    between atoms: _6  and  _7
REMARK    5  A    between atoms: _13  and  _15
REMARK    6  A    between atoms: _15  and  _16
REMARK    7  A    between atoms: _15  and  _18
REMARK    8  A    between atoms: _18  and  _19
REMARK    9  A    between atoms: _19  and  _20
REMARK   10  A    between atoms: _26  and  _27
REMARK   11  A    between atoms: _32  and  _34
REMARK   12  A    between atoms: _34  and  _35
REMARK   13  A    between atoms: _34  and  _37
REMARK   14  A    between atoms: _37  and  _38
REMARK   15  A    between atoms: _43  and  _45
REMARK   16  A    between atoms: _45  and  _46
REMARK   17  A    between atoms: _45  and  _48
REMARK   18  A    between atoms: _51  and  _53
REMARK   19  A    between atoms: _53  and  _54
REMARK   20  A    between atoms: _53  and  _56
REMARK   21  A    between atoms: _56  and  _57
REMARK   22  A    between atoms: _61  and  _62
REMARK   23  A    between atoms: _68  and  _69
REMARK   24  A    between atoms: _74  and  _76
REMARK   25  A    between atoms: _76  and  _77
REMARK   26  A    between atoms: _76  and  _79
REMARK   27  A    between atoms: _79  and  _80
REMARK   28  A    between atoms: _90  and  _92
REMARK   29  A    between atoms: _92  and  _93
REMARK   30  A    between atoms: _92  and  _95
REMARK   31  A    between atoms: _95  and  _96
REMARK   32  A    between atoms: _106  and  _108
REMARK   33  A    between atoms: _108  and  _109
REMARK   34  A    between atoms: _108  and  _111
REMARK   35  A    between atoms: _111  and  _112
REMARK   36  A    between atoms: _112  and  _113
REMARK   37  A    between atoms: _116  and  _118
REMARK   38  A    between atoms: _118  and  _119
REMARK   39  A    between atoms: _118  and  _121
REMARK   40  A    between atoms: _121  and  _122
REMARK   41  A    between atoms: _122  and  _123
REMARK   42  A    between atoms: _123  and  _124
REMARK   43  A    between atoms: _133  and  _135
REMARK   44  A    between atoms: _135  and  _136
REMARK   45  A    between atoms: _135  and  _138
REMARK   46  A    between atoms: _138  and  _139
REMARK   47  A    between atoms: _144  and  _145
REMARK   48  A    between atoms: _147  and  _149
REMARK   49  A    between atoms: _149  and  _150
REMARK   50  A    between atoms: _149  and  _152
REMARK   51  A    between atoms: _152  and  _153
REMARK   52  A    between atoms: _153  and  _154
REMARK   53  A    between atoms: _160  and  _161
REMARK   54  A    between atoms: _166  and  _168
REMARK   55  A    between atoms: _168  and  _169
REMARK   56  A    between atoms: _168  and  _171
REMARK   57  A    between atoms: _171  and  _172
REMARK   58  A    between atoms: _175  and  _177
REMARK   59  A    between atoms: _177  and  _178
REMARK   60  A    between atoms: _181  and  _183
REMARK   61  A    between atoms: _183  and  _184
REMARK   62  A    between atoms: _183  and  _186
REMARK   63  A    between atoms: _189  and  _191
REMARK   64  A    between atoms: _191  and  _192
REMARK   65  A    between atoms: _191  and  _194
REMARK   66  A    between atoms: _194  and  _195
REMARK   67  A    between atoms: _198  and  _200
REMARK   68  A    between atoms: _200  and  _201
REMARK   69  A    between atoms: _200  and  _203
REMARK   70  A    between atoms: _203  and  _204
REMARK   71  A    between atoms: _209  and  _211
REMARK   72  A    between atoms: _211  and  _212
REMARK   73  A    between atoms: _211  and  _214
REMARK   74  A    between atoms: _214  and  _215
REMARK   75  A    between atoms: _220  and  _222
REMARK   76  A    between atoms: _222  and  _223
REMARK   77  A    between atoms: _222  and  _225
REMARK   78  A    between atoms: _225  and  _226
REMARK   79  A    between atoms: _226  and  _227
REMARK   80  A    between atoms: _229  and  _231
REMARK   81  A    between atoms: _231  and  _232
REMARK   82  A    between atoms: _231  and  _234
REMARK   83  A    between atoms: _236  and  _238
REMARK   84  A    between atoms: _238  and  _239
REMARK   85  A    between atoms: _241  and  _243
REMARK   86  A    between atoms: _243  and  _244
REMARK   87  A    between atoms: _243  and  _246
REMARK   88  A    between atoms: _246  and  _247
REMARK   89  A    between atoms: _252  and  _254
REMARK   90  A    between atoms: _254  and  _255
REMARK   91  A    between atoms: _258  and  _260
REMARK   92  A    between atoms: _260  and  _261
REMARK   93  A    between atoms: _260  and  _263
REMARK   94  A    between atoms: _266  and  _268
REMARK   95  A    between atoms: _268  and  _269
REMARK   96  A    between atoms: _268  and  _271
REMARK   97  A    between atoms: _271  and  _272
REMARK   98  A    between atoms: _275  and  _277
REMARK   99  A    between atoms: _277  and  _278
REMARK  100  A    between atoms: _277  and  _280
REMARK  101  A    between atoms: _280  and  _281
REMARK  102  A    between atoms: _284  and  _286
REMARK  103  A    between atoms: _286  and  _287
REMARK  104  A    between atoms: _286  and  _289
REMARK  105  A    between atoms: _289  and  _290
REMARK  106  A    between atoms: _295  and  _296
REMARK  107  A    between atoms: _298  and  _300
REMARK  108  A    between atoms: _300  and  _301
REMARK  109  A    between atoms: _300  and  _303
REMARK  110  A    between atoms: _306  and  _308
REMARK  111  A    between atoms: _308  and  _309
REMARK  112  A    between atoms: _308  and  _311
REMARK  113  A    between atoms: _311  and  _312
REMARK  114  A    between atoms: _312  and  _313
REMARK  115  A    between atoms: _313  and  _314
REMARK  116  A    between atoms: _323  and  _325
REMARK  117  A    between atoms: _325  and  _326
REMARK  118  A    between atoms: _325  and  _328
REMARK  119  A    between atoms: _328  and  _329
REMARK  120  A    between atoms: _332  and  _334
REMARK  121  A    between atoms: _334  and  _335
REMARK  122  A    between atoms: _334  and  _337
REMARK  123  A    between atoms: _337  and  _338
REMARK  124  A    between atoms: _341  and  _343
REMARK  125  A    between atoms: _343  and  _344
REMARK  126  A    between atoms: _346  and  _348
REMARK  127  A    between atoms: _348  and  _349
REMARK  128  A    between atoms: _348  and  _351
REMARK  129  A    between atoms: _351  and  _352
REMARK  130  A    between atoms: _355  and  _357
REMARK  131  A    between atoms: _357  and  _358
REMARK  132  A    between atoms: _357  and  _360
REMARK  133  A    between atoms: _360  and  _361
REMARK  134  A    between atoms: _364  and  _366
REMARK  135  A    between atoms: _366  and  _367
REMARK  136  A    between atoms: _366  and  _369
REMARK  137  A    between atoms: _369  and  _370
REMARK  138  A    between atoms: _370  and  _371
REMARK  139  A    between atoms: _371  and  _372
REMARK  140  A    between atoms: _381  and  _383
REMARK  141  A    between atoms: _383  and  _384
REMARK  142  A    between atoms: _383  and  _386
REMARK  143  A    between atoms: _386  and  _387
REMARK  144  A    between atoms: _390  and  _392
REMARK  145  A    between atoms: _392  and  _393
REMARK  146  A    between atoms: _392  and  _395
REMARK  147  A    between atoms: _395  and  _396
REMARK  148  A    between atoms: _399  and  _401
REMARK  149  A    between atoms: _401  and  _402
REMARK  150  A    between atoms: _405  and  _407
REMARK  151  A    between atoms: _407  and  _408
REMARK  152  A    between atoms: _407  and  _410
REMARK  153  A    between atoms: _410  and  _411
REMARK  154  A    between atoms: _413  and  _415
REMARK  155  A    between atoms: _415  and  _416
REMARK  156  A    between atoms: _415  and  _418
REMARK  157  A    between atoms: _418  and  _419
REMARK  158  A    between atoms: _419  and  _420
REMARK  159  A    between atoms: _420  and  _421
REMARK  160  A    between atoms: _421  and  _422
REMARK  161  A    between atoms: _426  and  _428
REMARK  162  A    between atoms: _428  and  _429
REMARK  163  A    between atoms: _428  and  _431
REMARK  164  A    between atoms: _431  and  _432
REMARK  165  A    between atoms: _437  and  _439
REMARK  166  A    between atoms: _439  and  _440
REMARK  167  A    between atoms: _439  and  _442
REMARK  168  A    between atoms: _442  and  _443
REMARK  169  A    between atoms: _443  and  _444
REMARK  170  A    between atoms: _447  and  _449
REMARK  171  A    between atoms: _449  and  _450
REMARK  172  A    between atoms: _449  and  _452
REMARK  173  A    between atoms: _455  and  _457
REMARK  174  A    between atoms: _457  and  _458
REMARK  175  A    between atoms: _457  and  _460
REMARK  176  A    between atoms: _460  and  _461
REMARK  177  A    between atoms: _464  and  _466
REMARK  178  A    between atoms: _466  and  _467
REMARK  179  A    between atoms: _466  and  _469
REMARK  180  A    between atoms: _469  and  _470
REMARK  181  A    between atoms: _473  and  _475
REMARK  182  A    between atoms: _475  and  _476
REMARK  183  A    between atoms: _475  and  _478
REMARK  184  A    between atoms: _478  and  _479
REMARK  185  A    between atoms: _482  and  _484
REMARK  186  A    between atoms: _484  and  _485
REMARK  187  A    between atoms: _487  and  _489
REMARK  188  A    between atoms: _489  and  _490
REMARK  189  A    between atoms: _492  and  _494
REMARK  190  A    between atoms: _494  and  _495
REMARK  191  A    between atoms: _494  and  _497
REMARK  192  A    between atoms: _497  and  _498
REMARK  193  A    between atoms: _498  and  _499
REMARK  194  A    between atoms: _502  and  _504
REMARK  195  A    between atoms: _504  and  _505
REMARK  196  A    between atoms: _504  and  _507
REMARK  197  A    between atoms: _507  and  _508
REMARK  198  A    between atoms: _511  and  _513
REMARK  199  A    between atoms: _513  and  _514
REMARK  200  A    between atoms: _513  and  _516
REMARK  201  A    between atoms: _516  and  _517
REMARK  202  A    between atoms: _523  and  _525
REMARK  203  A    between atoms: _525  and  _526
REMARK  204  A    between atoms: _525  and  _528
REMARK  205  A    between atoms: _528  and  _529
REMARK  206  A    between atoms: _534  and  _536
REMARK  207  A    between atoms: _536  and  _537
REMARK  208  A    between atoms: _536  and  _539
REMARK  209  A    between atoms: _539  and  _540
REMARK  210  A    between atoms: _545  and  _547
REMARK  211  A    between atoms: _547  and  _548
REMARK  212  A    between atoms: _547  and  _550
REMARK  213  A    between atoms: _550  and  _551
REMARK  214  A    between atoms: _554  and  _556
REMARK  215  A    between atoms: _556  and  _557
REMARK  216  A    between atoms: _556  and  _559
REMARK  217  A    between atoms: _559  and  _560
REMARK  218  A    between atoms: _565  and  _567
REMARK  219  A    between atoms: _567  and  _568
REMARK  220  A    between atoms: _567  and  _570
REMARK  221  A    between atoms: _570  and  _571
REMARK  222  A    between atoms: _571  and  _572
REMARK  223  A    between atoms: _572  and  _573
REMARK  224  A    between atoms: _582  and  _584
REMARK  225  A    between atoms: _584  and  _585
REMARK  226  A    between atoms: _587  and  _589
REMARK  227  A    between atoms: _589  and  _590
REMARK  228  A    between atoms: _589  and  _592
REMARK  229  A    between atoms: _592  and  _593
REMARK  230  A    between atoms: _598  and  _600
REMARK  231  A    between atoms: _600  and  _601
REMARK  232  A    between atoms: _603  and  _605
REMARK  233  A    between atoms: _605  and  _606
REMARK  234  A    between atoms: _609  and  _611
REMARK  235  A    between atoms: _611  and  _612
REMARK  236  A    between atoms: _614  and  _616
REMARK  237  A    between atoms: _616  and  _617
REMARK  238  A    between atoms: _619  and  _621
REMARK  239  A    between atoms: _621  and  _622
REMARK  240  A    between atoms: _621  and  _624
REMARK  241  A    between atoms: _624  and  _625
REMARK  242  A    between atoms: _625  and  _626
REMARK  243  A    between atoms: _626  and  _627
REMARK  244  A    between atoms: _636  and  _638
REMARK  245  A    between atoms: _638  and  _639
REMARK  246  A    between atoms: _638  and  _641
REMARK  247  A    between atoms: _641  and  _642
REMARK  248  A    between atoms: _645  and  _647
REMARK  249  A    between atoms: _647  and  _648
REMARK  250  A    between atoms: _647  and  _650
REMARK  251  A    between atoms: _650  and  _651
REMARK                            x       y       z     vdW  Elec       q    Type
REMARK                         _______ _______ _______ _____ _____    ______ ____
ROOT
ATOM      1  CB  PHE A   1       0.042  22.344  46.000  0.00  0.00    +0.051 C 
ENDROOT
BRANCH   1   2
ATOM      2  CG  PHE A   1       1.508  22.229  46.226  0.00  0.00    -0.020 A 
ATOM      3  CD2 PHE A   1       2.002  21.453  47.284  0.00  0.00    -0.004 A 
ATOM      4  CE2 PHE A   1       3.399  21.347  47.505  0.00  0.00    -0.000 A 
ATOM      5  CZ  PHE A   1       4.316  22.009  46.667  0.00  0.00    -0.000 A 
ATOM      6  CE1 PHE A   1       3.833  22.795  45.594  0.00  0.00    -0.000 A 
ATOM      7  CD1 PHE A   1       2.420  22.896  45.375  0.00  0.00    -0.004 A 
ENDBRANCH   1   2
BRANCH   1   8
ATOM      8  CA  PHE A   1      -0.618  23.427  46.844  0.00  0.00    +0.137 C 
BRANCH   8   9
ATOM      9  N   PHE A   1      -0.754  22.999  48.239  0.00  0.00    -0.239 NA
ATOM     10  H   PHE A   1      -0.674  21.987  48.467  0.00  0.00    +0.142 HD
ENDBRANCH   8   9
BRANCH   8  11
ATOM     11  C   PHE A   1      -1.910  23.875  46.180  0.00  0.00    +0.224 C 
ATOM     12  O   PHE A   1      -1.866  24.538  45.141  0.00  0.00    -0.287 OA
ENDBRANCH   8  11
ENDBRANCH   1   8
TORSDOF 4
REMARK  Name = ../refined-set-2016/1xd0/1xd0_pocket.pdb
REMARK  251 active torsions:
REMARK  status: ('A' for Active; 'I' for Inactive)
REMARK    1  A    between atoms: _1  and  _3
REMARK    2  A    between atoms: _3  and  _4
REMARK    3  A    between atoms: _3  and  _6
REMARK    4  A    between atoms: _6  and  _7
REMARK    5  A    between atoms: _13  and  _15
REMARK    6  A    between atoms: _15  and  _16
REMARK    7  A    between atoms: _15  and  _18
REMARK    8  A    between atoms: _18  and  _19
REMARK    9  A    between atoms: _19  and  _20
REMARK   10  A    between atoms: _26  and  _27
REMARK   11  A    between atoms: _32  and  _34
REMARK   12  A    between atoms: _34  and  _35
REMARK   13  A    between atoms: _34  and  _37
REMARK   14  A    between atoms: _37  and  _38
REMARK   15  A    between atoms: _43  and  _45
REMARK   16  A    between atoms: _45  and  _46
REMARK   17  A    between atoms: _45  and  _48
REMARK   18  A    between atoms: _51  and  _53
REMARK   19  A    between atoms: _53  and  _54
REMARK   20  A    between atoms: _53  and  _56
REMARK   21  A    between atoms: _56  and  _57
REMARK   22  A    between atoms: _61  and  _62
REMARK   23  A    between atoms: _68  and  _69
REMARK   24  A    between atoms: _74  and  _76
REMARK   25  A    between atoms: _76  and  _77
REMARK   26  A    between atoms: _76  and  _79
REMARK   27  A    between atoms: _79  and  _80
REMARK   28  A    between atoms: _90  and  _92
REMARK   29  A    between atoms: _92  and  _93
REMARK   30  A    between atoms: _92  and  _95
REMARK   31  A    between atoms: _95  and  _96
REMARK   32  A    between atoms: _106  and  _108
REMARK   33  A    between atoms: _108  and  _109
REMARK   34  A    between atoms: _108  and  _111
REMARK   35  A    between atoms: _111  and  _112
REMARK   36  A    between atoms: _112  and  _113
REMARK   37  A    between atoms: _116  and  _118
REMARK   38  A    between atoms: _118  and  _119
REMARK   39  A    between atoms: _118  and  _121
REMARK   40  A    between atoms: _121  and  _122
REMARK   41  A    between atoms: _122  and  _123
REMARK   42  A    between atoms: _123  and  _124
REMARK   43  A    between atoms: _133  and  _135
REMARK   44  A    between atoms: _135  and  _136
REMARK   45  A    between atoms: _135  and  _138
REMARK   46  A    between atoms: _138  and  _139
REMARK   47  A    between atoms: _144  and  _145
REMARK   48  A    between atoms: _147  and  _149
REMARK   49  A    between atoms: _149  and  _150
REMARK   50  A    between atoms: _149  and  _152
REMARK   51  A    between atoms: _152  and  _153
REMARK   52  A    between atoms: _153  and  _154
REMARK   53  A    between atoms: _160  and  _161
REMARK   54  A    between atoms: _166  and  _168
REMARK   55  A    between atoms: _168  and  _169
REMARK   56  A    between atoms: _168  and  _171
REMARK   57  A    between atoms: _171  and  _172
REMARK   58  A    between atoms: _175  and  _177
REMARK   59  A    between atoms: _177  and  _178
REMARK   60  A    between atoms: _181  and  _183
REMARK   61  A    between atoms: _183  and  _184
REMARK   62  A    between atoms: _183  and  _186
REMARK   63  A    between atoms: _189  and  _191
REMARK   64  A    between atoms: _191  and  _192
REMARK   65  A    between atoms: _191  and  _194
REMARK   66  A    between atoms: _194  and  _195
REMARK   67  A    between atoms: _198  and  _200
REMARK   68  A    between atoms: _200  and  _201
REMARK   69  A    between atoms: _200  and  _203
REMARK   70  A    between atoms: _203  and  _204
REMARK   71  A    between atoms: _209  and  _211
REMARK   72  A    between atoms: _211  and  _212
REMARK   73  A    between atoms: _211  and  _214
REMARK   74  A    between atoms: _214  and  _215
REMARK   75  A    between atoms: _220  and  _222
REMARK   76  A    between atoms: _222  and  _223
REMARK   77  A    between atoms: _222  and  _225
REMARK   78  A    between atoms: _225  and  _226
REMARK   79  A    between atoms: _226  and  _227
REMARK   80  A    between atoms: _229  and  _231
REMARK   81  A    between atoms: _231  and  _232
REMARK   82  A    between atoms: _231  and  _234
REMARK   83  A    between atoms: _236  and  _238
REMARK   84  A    between atoms: _238  and  _239
REMARK   85  A    between atoms: _241  and  _243
REMARK   86  A    between atoms: _243  and  _244
REMARK   87  A    between atoms: _243  and  _246
REMARK   88  A    between atoms: _246  and  _247
REMARK   89  A    between atoms: _252  and  _254
REMARK   90  A    between atoms: _254  and  _255
REMARK   91  A    between atoms: _258  and  _260
REMARK   92  A    between atoms: _260  and  _261
REMARK   93  A    between atoms: _260  and  _263
REMARK   94  A    between atoms: _266  and  _268
REMARK   95  A    between atoms: _268  and  _269
REMARK   96  A    between atoms: _268  and  _271
REMARK   97  A    between atoms: _271  and  _272
REMARK   98  A    between atoms: _275  and  _277
REMARK   99  A    between atoms: _277  and  _278
REMARK  100  A    between atoms: _277  and  _280
REMARK  101  A    between atoms: _280  and  _281
REMARK  102  A    between atoms: _284  and  _286
REMARK  103  A    between atoms: _286  and  _287
REMARK  104  A    between atoms: _286  and  _289
REMARK  105  A    between atoms: _289  and  _290
REMARK  106  A    between atoms: _295  and  _296
REMARK  107  A    between atoms: _298  and  _300
REMARK  108  A    between atoms: _300  and  _301
REMARK  109  A    between atoms: _300  and  _303
REMARK  110  A    between atoms: _306  and  _308
REMARK  111  A    between atoms: _308  and  _309
REMARK  112  A    between atoms: _308  and  _311
REMARK  113  A    between atoms: _311  and  _312
REMARK  114  A    between atoms: _312  and  _313
REMARK  115  A    between atoms: _313  and  _314
REMARK  116  A    between atoms: _323  and  _325
REMARK  117  A    between atoms: _325  and  _326
REMARK  118  A    between atoms: _325  and  _328
REMARK  119  A    between atoms: _328  and  _329
REMARK  120  A    between atoms: _332  and  _334
REMARK  121  A    between atoms: _334  and  _335
REMARK  122  A    between atoms: _334  and  _337
REMARK  123  A    between atoms: _337  and  _338
REMARK  124  A    between atoms: _341  and  _343
REMARK  125  A    between atoms: _343  and  _344
REMARK  126  A    between atoms: _346  and  _348
REMARK  127  A    between atoms: _348  and  _349
REMARK  128  A    between atoms: _348  and  _351
REMARK  129  A    between atoms: _351  and  _352
REMARK  130  A    between atoms: _355  and  _357
REMARK  131  A    between atoms: _357  and  _358
REMARK  132  A    between atoms: _357  and  _360
REMARK  133  A    between atoms: _360  and  _361
REMARK  134  A    between atoms: _364  and  _366
REMARK  135  A    between atoms: _366  and  _367
REMARK  136  A    between atoms: _366  and  _369
REMARK  137  A    between atoms: _369  and  _370
REMARK  138  A    between atoms: _370  and  _371
REMARK  139  A    between atoms: _371  and  _372
REMARK  140  A    between atoms: _381  and  _383
REMARK  141  A    between atoms: _383  and  _384
REMARK  142  A    between atoms: _383  and  _386
REMARK  143  A    between atoms: _386  and  _387
REMARK  144  A    between atoms: _390  and  _392
REMARK  145  A    between atoms: _392  and  _393
REMARK  146  A    between atoms: _392  and  _395
REMARK  147  A    between atoms: _395  and  _396
REMARK  148  A    between atoms: _399  and  _401
REMARK  149  A    between atoms: _401  and  _402
REMARK  150  A    between atoms: _405  and  _407
REMARK  151  A    between atoms: _407  and  _408
REMARK  152  A    between atoms: _407  and  _410
REMARK  153  A    between atoms: _410  and  _411
REMARK  154  A    between atoms: _413  and  _415
REMARK  155  A    between atoms: _415  and  _416
REMARK  156  A    between atoms: _415  and  _418
REMARK  157  A    between atoms: _418  and  _419
REMARK  158  A    between atoms: _419  and  _420
REMARK  159  A    between atoms: _420  and  _421
REMARK  160  A    between atoms: _421  and  _422
REMARK  161  A    between atoms: _426  and  _428
REMARK  162  A    between atoms: _428  and  _429
REMARK  163  A    between atoms: _428  and  _431
REMARK  164  A    between atoms: _431  and  _432
REMARK  165  A    between atoms: _437  and  _439
REMARK  166  A    between atoms: _439  and  _440
REMARK  167  A    between atoms: _439  and  _442
REMARK  168  A    between atoms: _442  and  _443
REMARK  169  A    between atoms: _443  and  _444
REMARK  170  A    between atoms: _447  and  _449
REMARK  171  A    between atoms: _449  and  _450
REMARK  172  A    between atoms: _449  and  _452
REMARK  173  A    between atoms: _455  and  _457
REMARK  174  A    between atoms: _457  and  _458
REMARK  175  A    between atoms: _457  and  _460
REMARK  176  A    between atoms: _460  and  _461
REMARK  177  A    between atoms: _464  and  _466
REMARK  178  A    between atoms: _466  and  _467
REMARK  179  A    between atoms: _466  and  _469
REMARK  180  A    between atoms: _469  and  _470
REMARK  181  A    between atoms: _473  and  _475
REMARK  182  A    between atoms: _475  and  _476
REMARK  183  A    between atoms: _475  and  _478
REMARK  184  A    between atoms: _478  and  _479
REMARK  185  A    between atoms: _482  and  _484
REMARK  186  A    between atoms: _484  and  _485
REMARK  187  A    between atoms: _487  and  _489
REMARK  188  A    between atoms: _489  and  _490
REMARK  189  A    between atoms: _492  and  _494
REMARK  190  A    between atoms: _494  and  _495
REMARK  191  A    between atoms: _494  and  _497
REMARK  192  A    between atoms: _497  and  _498
REMARK  193  A    between atoms: _498  and  _499
REMARK  194  A    between atoms: _502  and  _504
REMARK  195  A    between atoms: _504  and  _505
REMARK  196  A    between atoms: _504  and  _507
REMARK  197  A    between atoms: _507  and  _508
REMARK  198  A    between atoms: _511  and  _513
REMARK  199  A    between atoms: _513  and  _514
REMARK  200  A    between atoms: _513  and  _516
REMARK  201  A    between atoms: _516  and  _517
REMARK  202  A    between atoms: _523  and  _525
REMARK  203  A    between atoms: _525  and  _526
REMARK  204  A    between atoms: _525  and  _528
REMARK  205  A    between atoms: _528  and  _529
REMARK  206  A    between atoms: _534  and  _536
REMARK  207  A    between atoms: _536  and  _537
REMARK  208  A    between atoms: _536  and  _539
REMARK  209  A    between atoms: _539  and  _540
REMARK  210  A    between atoms: _545  and  _547
REMARK  211  A    between atoms: _547  and  _548
REMARK  212  A    between atoms: _547  and  _550
REMARK  213  A    between atoms: _550  and  _551
REMARK  214  A    between atoms: _554  and  _556
REMARK  215  A    between atoms: _556  and  _557
REMARK  216  A    between atoms: _556  and  _559
REMARK  217  A    between atoms: _559  and  _560
REMARK  218  A    between atoms: _565  and  _567
REMARK  219  A    between atoms: _567  and  _568
REMARK  220  A    between atoms: _567  and  _570
REMARK  221  A    between atoms: _570  and  _571
REMARK  222  A    between atoms: _571  and  _572
REMARK  223  A    between atoms: _572  and  _573
REMARK  224  A    between atoms: _582  and  _584
REMARK  225  A    between atoms: _584  and  _585
REMARK  226  A    between atoms: _587  and  _589
REMARK  227  A    between atoms: _589  and  _590
REMARK  228  A    between atoms: _589  and  _592
REMARK  229  A    between atoms: _592  and  _593
REMARK  230  A    between atoms: _598  and  _600
REMARK  231  A    between atoms: _600  and  _601
REMARK  232  A    between atoms: _603  and  _605
REMARK  233  A    between atoms: _605  and  _606
REMARK  234  A    between atoms: _609  and  _611
REMARK  235  A    between atoms: _611  and  _612
REMARK  236  A    between atoms: _614  and  _616
REMARK  237  A    between atoms: _616  and  _617
REMARK  238  A    between atoms: _619  and  _621
REMARK  239  A    between atoms: _621  and  _622
REMARK  240  A    between atoms: _621  and  _624
REMARK  241  A    between atoms: _624  and  _625
REMARK  242  A    between atoms: _625  and  _626
REMARK  243  A    between atoms: _626  and  _627
REMARK  244  A    between atoms: _636  and  _638
REMARK  245  A    between atoms: _638  and  _639
REMARK  246  A    between atoms: _638  and  _641
REMARK  247  A    between atoms: _641  and  _642
REMARK  248  A    between atoms: _645  and  _647
REMARK  249  A    between atoms: _647  and  _648
REMARK  250  A    between atoms: _647  and  _650
REMARK  251  A    between atoms: _650  and  _651
REMARK                            x       y       z     vdW  Elec       q    Type
REMARK                         _______ _______ _______ _____ _____    ______ ____
ROOT
ATOM      1  C   HIS A   2      10.428  25.822  42.116  0.00  0.00    +0.241 C 
ATOM      2  N   ASP A   3       9.496  24.896  42.333  0.00  0.00    -0.297 N 
ATOM      3  H   ASP A   3       9.062  24.829  43.276  0.00  0.00    +0.150 HD
ATOM      4  O   HIS A   2      11.027  25.942  41.054  0.00  0.00    -0.273 OA
ENDROOT
BRANCH   2   5
ATOM      5  CA  ASP A   3       9.067  23.977  41.293  0.00  0.00    +0.160 C 
BRANCH   5   6
ATOM      6  C   ASP A   3       8.102  24.581  40.289  0.00  0.00    +0.241 C 
ATOM      7  N   ASN A   4       6.929  24.992  40.765  0.00  0.00    -0.298 N 
ATOM      8  H   ASN A   4       6.742  24.931  41.786  0.00  0.00    +0.150 HD
ATOM      9  O   ASP A   3       8.417  24.676  39.104  0.00  0.00    -0.273 OA
BRANCH   7  10
ATOM     10  CA  ASN A   4       5.902  25.526  39.881  0.00  0.00    +0.146 C 
BRANCH  10  11
ATOM     11  C   ASN A   4       6.083  26.906  39.290  0.00  0.00    +0.227 C 
ATOM     12  O   ASN A   4       5.277  27.316  38.458  0.00  0.00    -0.286 OA
ENDBRANCH  10  11
BRANCH  10  13
ATOM     13  CB  ASN A   4       4.503  25.348  40.482  0.00  0.00    +0.112 C 
BRANCH  13  14
ATOM     14  CG  ASN A   4       4.288  26.155  41.755  0.00  0.00    +0.222 C 
ATOM     15  ND2 ASN A   4       3.361  25.701  42.580  0.00  0.00    -0.329 N 
ATOM     16 HD21 ASN A   4       3.148  26.217  43.458  0.00  0.00    +0.145 HD
ATOM     17 HD22 ASN A   4       2.844  24.828  42.352  0.00  0.00    +0.145 HD
ATOM     18  OD1 ASN A   4       4.927  27.184  41.981  0.00  0.00    -0.275 OA
ENDBRANCH  13  14
ENDBRANCH  10  13
ENDBRANCH   7  10
ENDBRANCH   5   6
BRANCH   5  19
ATOM     19  CB  ASP A   3       8.414  22.729  41.890  0.00  0.00    +0.143 C 
BRANCH  19  20
ATOM     20  CG  ASP A   3       9.409  21.659  42.270  0.00  0.00    +0.367 C 
ATOM     21  OD2 ASP A   3       8.954  20.647  42.840  0.00  0.00    -0.246 OA
ATOM     22  OD1 ASP A   3      10.619  21.799  42.005  0.00  0.00    -0.246 OA
ENDBRANCH  19  20
ENDBRANCH   5  19
ENDBRANCH   2   5
BRANCH   1  23
ATOM     23  CA  HIS A   2      10.771  26.732  43.297  0.00  0.00    +0.155 C 
BRANCH  23  25
ATOM     24  C   ASN A   1       8.500  27.434  43.875  0.00  0.00    +0.239 C 
ATOM     25  N   HIS A   2       9.685  26.949  44.255  0.00  0.00    -0.297 N 
ATOM     26  H   HIS A   2       9.840  26.719  45.257  0.00  0.00    +0.150 HD
ATOM     27  O   ASN A   1       8.209  27.663  42.698  0.00  0.00    -0.274 OA
BRANCH  24  28
ATOM     28  CA  ASN A   1       7.432  27.629  44.943  0.00  0.00    +0.154 C 
BRANCH  28  29
ATOM     29  N   ASN A   1       6.269  28.219  44.287  0.00  0.00    -0.238 NA
ATOM     30  H   ASN A   1       5.894  27.785  43.420  0.00  0.00    +0.142 HD
ENDBRANCH  28  29
BRANCH  28  31
ATOM     31  CB  ASN A   1       7.064  26.343  45.732  0.00  0.00    +0.111 C 
BRANCH  31  32
ATOM     32  CG  ASN A   1       6.972  25.078  44.872  0.00  0.00    +0.221 C 
ATOM     33  ND2 ASN A   1       7.212  23.942  45.509  0.00  0.00    -0.329 N 
ATOM     34 HD21 ASN A   1       7.431  23.952  46.526  0.00  0.00    +0.145 HD
ATOM     35 HD22 ASN A   1       7.182  23.040  44.993  0.00  0.00    +0.145 HD
ATOM     36  OD1 ASN A   1       6.709  25.115  43.669  0.00  0.00    -0.275 OA
ENDBRANCH  31  32
ENDBRANCH  28  31
ENDBRANCH  24  28
ENDBRANCH  23  25
BRANCH  23  37
ATOM     37  CB  HIS A   2      12.043  26.253  44.006  0.00  0.00    +0.076 C 
BRANCH  37  38
ATOM     38  CG  HIS A   2      11.988  24.834  44.480  0.00  0.00    +0.082 A 
ATOM     39  ND1 HIS A   2      11.382  24.472  45.659  0.00  0.00    -0.227 NA
ATOM     40  CE1 HIS A   2      11.476  23.161  45.813  0.00  0.00    +0.199 A 
ATOM     41  NE2 HIS A   2      12.124  22.666  44.772  0.00  0.00    -0.221 NA
ATOM     42  CD2 HIS A   2      12.457  23.692  43.925  0.00  0.00    +0.115 A 
ENDBRANCH  37  38
ENDBRANCH  23  37
ENDBRANCH   1  23
TORSDOF 16
REMARK  Name = ../refined-set-2016/1xd0/1xd0_pocket.pdb
REMARK  251 active torsions:
REMARK  status: ('A' for Active; 'I' for Inactive)
REMARK    1  A    between atoms: _1  and  _3
REMARK    2  A    between atoms: _3  and  _4
REMARK    3  A    between atoms: _3  and  _6
REMARK    4  A    between atoms: _6  and  _7
REMARK    5  A    between atoms: _13  and  _15
REMARK    6  A    between atoms: _15  and  _16
REMARK    7  A    between atoms: _15  and  _18
REMARK    8  A    between atoms: _18  and  _19
REMARK    9  A    between atoms: _19  and  _20
REMARK   10  A    between atoms: _26  and  _27
REMARK   11  A    between atoms: _32  and  _34
REMARK   12  A    between atoms: _34  and  _35
REMARK   13  A    between atoms: _34  and  _37
REMARK   14  A    between atoms: _37  and  _38
REMARK   15  A    between atoms: _43  and  _45
REMARK   16  A    between atoms: _45  and  _46
REMARK   17  A    between atoms: _45  and  _48
REMARK   18  A    between atoms: _51  and  _53
REMARK   19  A    between atoms: _53  and  _54
REMARK   20  A    between atoms: _53  and  _56
REMARK   21  A    between atoms: _56  and  _57
REMARK   22  A    between atoms: _61  and  _62
REMARK   23  A    between atoms: _68  and  _69
REMARK   24  A    between atoms: _74  and  _76
REMARK   25  A    between atoms: _76  and  _77
REMARK   26  A    between atoms: _76  and  _79
REMARK   27  A    between atoms: _79  and  _80
REMARK   28  A    between atoms: _90  and  _92
REMARK   29  A    between atoms: _92  and  _93
REMARK   30  A    between atoms: _92  and  _95
REMARK   31  A    between atoms: _95  and  _96
REMARK   32  A    between atoms: _106  and  _108
REMARK   33  A    between atoms: _108  and  _109
REMARK   34  A    between atoms: _108  and  _111
REMARK   35  A    between atoms: _111  and  _112
REMARK   36  A    between atoms: _112  and  _113
REMARK   37  A    between atoms: _116  and  _118
REMARK   38  A    between atoms: _118  and  _119
REMARK   39  A    between atoms: _118  and  _121
REMARK   40  A    between atoms: _121  and  _122
REMARK   41  A    between atoms: _122  and  _123
REMARK   42  A    between atoms: _123  and  _124
REMARK   43  A    between atoms: _133  and  _135
REMARK   44  A    between atoms: _135  and  _136
REMARK   45  A    between atoms: _135  and  _138
REMARK   46  A    between atoms: _138  and  _139
REMARK   47  A    between atoms: _144  and  _145
REMARK   48  A    between atoms: _147  and  _149
REMARK   49  A    between atoms: _149  and  _150
REMARK   50  A    between atoms: _149  and  _152
REMARK   51  A    between atoms: _152  and  _153
REMARK   52  A    between atoms: _153  and  _154
REMARK   53  A    between atoms: _160  and  _161
REMARK   54  A    between atoms: _166  and  _168
REMARK   55  A    between atoms: _168  and  _169
REMARK   56  A    between atoms: _168  and  _171
REMARK   57  A    between atoms: _171  and  _172
REMARK   58  A    between atoms: _175  and  _177
REMARK   59  A    between atoms: _177  and  _178
REMARK   60  A    between atoms: _181  and  _183
REMARK   61  A    between atoms: _183  and  _184
REMARK   62  A    between atoms: _183  and  _186
REMARK   63  A    between atoms: _189  and  _191
REMARK   64  A    between atoms: _191  and  _192
REMARK   65  A    between atoms: _191  and  _194
REMARK   66  A    between atoms: _194  and  _195
REMARK   67  A    between atoms: _198  and  _200
REMARK   68  A    between atoms: _200  and  _201
REMARK   69  A    between atoms: _200  and  _203
REMARK   70  A    between atoms: _203  and  _204
REMARK   71  A    between atoms: _209  and  _211
REMARK   72  A    between atoms: _211  and  _212
REMARK   73  A    between atoms: _211  and  _214
REMARK   74  A    between atoms: _214  and  _215
REMARK   75  A    between atoms: _220  and  _222
REMARK   76  A    between atoms: _222  and  _223
REMARK   77  A    between atoms: _222  and  _225
REMARK   78  A    between atoms: _225  and  _226
REMARK   79  A    between atoms: _226  and  _227
REMARK   80  A    between atoms: _229  and  _231
REMARK   81  A    between atoms: _231  and  _232
REMARK   82  A    between atoms: _231  and  _234
REMARK   83  A    between atoms: _236  and  _238
REMARK   84  A    between atoms: _238  and  _239
REMARK   85  A    between atoms: _241  and  _243
REMARK   86  A    between atoms: _243  and  _244
REMARK   87  A    between atoms: _243  and  _246
REMARK   88  A    between atoms: _246  and  _247
REMARK   89  A    between atoms: _252  and  _254
REMARK   90  A    between atoms: _254  and  _255
REMARK   91  A    between atoms: _258  and  _260
REMARK   92  A    between atoms: _260  and  _261
REMARK   93  A    between atoms: _260  and  _263
REMARK   94  A    between atoms: _266  and  _268
REMARK   95  A    between atoms: _268  and  _269
REMARK   96  A    between atoms: _268  and  _271
REMARK   97  A    between atoms: _271  and  _272
REMARK   98  A    between atoms: _275  and  _277
REMARK   99  A    between atoms: _277  and  _278
REMARK  100  A    between atoms: _277  and  _280
REMARK  101  A    between atoms: _280  and  _281
REMARK  102  A    between atoms: _284  and  _286
REMARK  103  A    between atoms: _286  and  _287
REMARK  104  A    between atoms: _286  and  _289
REMARK  105  A    between atoms: _289  and  _290
REMARK  106  A    between atoms: _295  and  _296
REMARK  107  A    between atoms: _298  and  _300
REMARK  108  A    between atoms: _300  and  _301
REMARK  109  A    between atoms: _300  and  _303
REMARK  110  A    between atoms: _306  and  _308
REMARK  111  A    between atoms: _308  and  _309
REMARK  112  A    between atoms: _308  and  _311
REMARK  113  A    between atoms: _311  and  _312
REMARK  114  A    between atoms: _312  and  _313
REMARK  115  A    between atoms: _313  and  _314
REMARK  116  A    between atoms: _323  and  _325
REMARK  117  A    between atoms: _325  and  _326
REMARK  118  A    between atoms: _325  and  _328
REMARK  119  A    between atoms: _328  and  _329
REMARK  120  A    between atoms: _332  and  _334
REMARK  121  A    between atoms: _334  and  _335
REMARK  122  A    between atoms: _334  and  _337
REMARK  123  A    between atoms: _337  and  _338
REMARK  124  A    between atoms: _341  and  _343
REMARK  125  A    between atoms: _343  and  _344
REMARK  126  A    between atoms: _346  and  _348
REMARK  127  A    between atoms: _348  and  _349
REMARK  128  A    between atoms: _348  and  _351
REMARK  129  A    between atoms: _351  and  _352
REMARK  130  A    between atoms: _355  and  _357
REMARK  131  A    between atoms: _357  and  _358
REMARK  132  A    between atoms: _357  and  _360
REMARK  133  A    between atoms: _360  and  _361
REMARK  134  A    between atoms: _364  and  _366
REMARK  135  A    between atoms: _366  and  _367
REMARK  136  A    between atoms: _366  and  _369
REMARK  137  A    between atoms: _369  and  _370
REMARK  138  A    between atoms: _370  and  _371
REMARK  139  A    between atoms: _371  and  _372
REMARK  140  A    between atoms: _381  and  _383
REMARK  141  A    between atoms: _383  and  _384
REMARK  142  A    between atoms: _383  and  _386
REMARK  143  A    between atoms: _386  and  _387
REMARK  144  A    between atoms: _390  and  _392
REMARK  145  A    between atoms: _392  and  _393
REMARK  146  A    between atoms: _392  and  _395
REMARK  147  A    between atoms: _395  and  _396
REMARK  148  A    between atoms: _399  and  _401
REMARK  149  A    between atoms: _401  and  _402
REMARK  150  A    between atoms: _405  and  _407
REMARK  151  A    between atoms: _407  and  _408
REMARK  152  A    between atoms: _407  and  _410
REMARK  153  A    between atoms: _410  and  _411
REMARK  154  A    between atoms: _413  and  _415
REMARK  155  A    between atoms: _415  and  _416
REMARK  156  A    between atoms: _415  and  _418
REMARK  157  A    between atoms: _418  and  _419
REMARK  158  A    between atoms: _419  and  _420
REMARK  159  A    between atoms: _420  and  _421
REMARK  160  A    between atoms: _421  and  _422
REMARK  161  A    between atoms: _426  and  _428
REMARK  162  A    between atoms: _428  and  _429
REMARK  163  A    between atoms: _428  and  _431
REMARK  164  A    between atoms: _431  and  _432
REMARK  165  A    between atoms: _437  and  _439
REMARK  166  A    between atoms: _439  and  _440
REMARK  167  A    between atoms: _439  and  _442
REMARK  168  A    between atoms: _442  and  _443
REMARK  169  A    between atoms: _443  and  _444
REMARK  170  A    between atoms: _447  and  _449
REMARK  171  A    between atoms: _449  and  _450
REMARK  172  A    between atoms: _449  and  _452
REMARK  173  A    between atoms: _455  and  _457
REMARK  174  A    between atoms: _457  and  _458
REMARK  175  A    between atoms: _457  and  _460
REMARK  176  A    between atoms: _460  and  _461
REMARK  177  A    between atoms: _464  and  _466
REMARK  178  A    between atoms: _466  and  _467
REMARK  179  A    between atoms: _466  and  _469
REMARK  180  A    between atoms: _469  and  _470
REMARK  181  A    between atoms: _473  and  _475
REMARK  182  A    between atoms: _475  and  _476
REMARK  183  A    between atoms: _475  and  _478
REMARK  184  A    between atoms: _478  and  _479
REMARK  185  A    between atoms: _482  and  _484
REMARK  186  A    between atoms: _484  and  _485
REMARK  187  A    between atoms: _487  and  _489
REMARK  188  A    between atoms: _489  and  _490
REMARK  189  A    between atoms: _492  and  _494
REMARK  190  A    between atoms: _494  and  _495
REMARK  191  A    between atoms: _494  and  _497
REMARK  192  A    between atoms: _497  and  _498
REMARK  193  A    between atoms: _498  and  _499
REMARK  194  A    between atoms: _502  and  _504
REMARK  195  A    between atoms: _504  and  _505
REMARK  196  A    between atoms: _504  and  _507
REMARK  197  A    between atoms: _507  and  _508
REMARK  198  A    between atoms: _511  and  _513
REMARK  199  A    between atoms: _513  and  _514
REMARK  200  A    between atoms: _513  and  _516
REMARK  201  A    between atoms: _516  and  _517
REMARK  202  A    between atoms: _523  and  _525
REMARK  203  A    between atoms: _525  and  _526
REMARK  204  A    between atoms: _525  and  _528
REMARK  205  A    between atoms: _528  and  _529
REMARK  206  A    between atoms: _534  and  _536
REMARK  207  A    between atoms: _536  and  _537
REMARK  208  A    between atoms: _536  and  _539
REMARK  209  A    between atoms: _539  and  _540
REMARK  210  A    between atoms: _545  and  _547
REMARK  211  A    between atoms: _547  and  _548
REMARK  212  A    between atoms: _547  and  _550
REMARK  213  A    between atoms: _550  and  _551
REMARK  214  A    between atoms: _554  and  _556
REMARK  215  A    between atoms: _556  and  _557
REMARK  216  A    between atoms: _556  and  _559
REMARK  217  A    between atoms: _559  and  _560
REMARK  218  A    between atoms: _565  and  _567
REMARK  219  A    between atoms: _567  and  _568
REMARK  220  A    between atoms: _567  and  _570
REMARK  221  A    between atoms: _570  and  _571
REMARK  222  A    between atoms: _571  and  _572
REMARK  223  A    between atoms: _572  and  _573
REMARK  224  A    between atoms: _582  and  _584
REMARK  225  A    between atoms: _584  and  _585
REMARK  226  A    between atoms: _587  and  _589
REMARK  227  A    between atoms: _589  and  _590
REMARK  228  A    between atoms: _589  and  _592
REMARK  229  A    between atoms: _592  and  _593
REMARK  230  A    between atoms: _598  and  _600
REMARK  231  A    between atoms: _600  and  _601
REMARK  232  A    between atoms: _603  and  _605
REMARK  233  A    between atoms: _605  and  _606
REMARK  234  A    between atoms: _609  and  _611
REMARK  235  A    between atoms: _611  and  _612
REMARK  236  A    between atoms: _614  and  _616
REMARK  237  A    between atoms: _616  and  _617
REMARK  238  A    between atoms: _619  and  _621
REMARK  239  A    between atoms: _621  and  _622
REMARK  240  A    between atoms: _621  and  _624
REMARK  241  A    between atoms: _624  and  _625
REMARK  242  A    between atoms: _625  and  _626
REMARK  243  A    between atoms: _626  and  _627
REMARK  244  A    between atoms: _636  and  _638
REMARK  245  A    between atoms: _638  and  _639
REMARK  246  A    between atoms: _638  and  _641
REMARK  247  A    between atoms: _641  and  _642
REMARK  248  A    between atoms: _645  and  _647
REMARK  249  A    between atoms: _647  and  _648
REMARK  250  A    between atoms: _647  and  _650
REMARK  251  A    between atoms: _650  and  _651
REMARK                            x       y       z     vdW  Elec       q    Type
REMARK                         _______ _______ _______ _____ _____    ______ ____
ROOT
ATOM      1  CA  HIS A   3       7.864  21.648  37.505  0.00  0.00    +0.155 C 
ENDROOT
BRANCH   1   2
ATOM      2  C   HIS A   3       6.778  21.499  38.568  0.00  0.00    +0.241 C 
ATOM      3  N   GLY A   4       6.636  20.300  39.128  0.00  0.00    -0.295 N 
ATOM      4  H   GLY A   4       7.247  19.515  38.824  0.00  0.00    +0.150 HD
ATOM      5  O   HIS A   3       6.062  22.456  38.853  0.00  0.00    -0.273 OA
BRANCH   3   6
ATOM      6  CA  GLY A   4       5.634  20.076  40.162  0.00  0.00    +0.176 C 
BRANCH   6   7
ATOM      7  C   GLY A   4       4.185  20.156  39.702  0.00  0.00    +0.243 C 
ATOM      8  N   ALA A   5       3.353  20.847  40.481  0.00  0.00    -0.297 N 
ATOM      9  H   ALA A   5       3.726  21.302  41.339  0.00  0.00    +0.150 HD
ATOM     10  O   GLY A   4       3.845  19.647  38.630  0.00  0.00    -0.273 OA
BRANCH   8  11
ATOM     11  CA  ALA A   5       1.935  20.984  40.166  0.00  0.00    +0.149 C 
ATOM     12  CB  ALA A   5       1.133  20.083  41.045  0.00  0.00    +0.031 C 
BRANCH  11  13
ATOM     13  C   ALA A   5       1.440  22.414  40.286  0.00  0.00    +0.241 C 
ATOM     14  O   ALA A   5       2.048  23.230  40.981  0.00  0.00    -0.273 OA
ATOM     15  N   GLY A   6       0.320  22.695  39.623  0.00  0.00    -0.295 N 
ATOM     16  H   GLY A   6      -0.151  21.945  39.078  0.00  0.00    +0.150 HD
BRANCH  15  17
ATOM     17  CA  GLY A   6      -0.256  24.024  39.646  0.00  0.00    +0.176 C 
BRANCH  17  18
ATOM     18  C   GLY A   6      -0.573  24.484  38.243  0.00  0.00    +0.243 C 
ATOM     19  O   GLY A   6      -1.587  25.152  38.023  0.00  0.00    -0.273 OA
ATOM     20  N   GLY A   7       0.314  24.151  37.304  0.00  0.00    -0.296 N 
ATOM     21  H   GLY A   7       1.168  23.623  37.575  0.00  0.00    +0.150 HD
BRANCH  20  22
ATOM     22  CA  GLY A   7       0.112  24.511  35.910  0.00  0.00    +0.163 C 
BRANCH  22  23
ATOM     23  C   GLY A   7       0.340  25.961  35.532  0.00  0.00    +0.229 C 
ATOM     24  O   GLY A   7       1.085  26.683  36.202  0.00  0.00    -0.286 OA
ENDBRANCH  22  23
ENDBRANCH  20  22
ENDBRANCH  17  18
ENDBRANCH  15  17
ENDBRANCH  11  13
ENDBRANCH   8  11
ENDBRANCH   6   7
ENDBRANCH   3   6
ENDBRANCH   1   2
BRANCH   1  26
ATOM     25  C   GLY A   2       6.910  23.061  35.764  0.00  0.00    +0.243 C 
ATOM     26  N   HIS A   3       7.669  22.950  36.854  0.00  0.00    -0.297 N 
ATOM     27  H   HIS A   3       8.129  23.796  37.248  0.00  0.00    +0.150 HD
ATOM     28  O   GLY A   2       6.427  22.086  35.192  0.00  0.00    -0.273 OA
BRANCH  25  29
ATOM     29  CA  GLY A   2       6.694  24.445  35.179  0.00  0.00    +0.176 C 
BRANCH  29  31
ATOM     30  C   ARG A   1       8.571  25.888  35.640  0.00  0.00    +0.238 C 
ATOM     31  N   GLY A   2       7.289  25.597  35.846  0.00  0.00    -0.296 N 
ATOM     32  H   GLY A   2       6.714  26.188  36.480  0.00  0.00    +0.150 HD
ATOM     33  O   ARG A   1       9.310  25.171  34.961  0.00  0.00    -0.274 OA
BRANCH  30  34
ATOM     34  CA  ARG A   1       9.131  27.123  36.334  0.00  0.00    +0.145 C 
BRANCH  34  35
ATOM     35  N   ARG A   1       8.464  27.519  37.564  0.00  0.00    -0.238 NA
ATOM     36  H   ARG A   1       8.354  26.810  38.317  0.00  0.00    +0.142 HD
ENDBRANCH  34  35
BRANCH  34  37
ATOM     37  CB  ARG A   1      10.625  26.945  36.581  0.00  0.00    +0.030 C 
BRANCH  37  38
ATOM     38  CG  ARG A   1      10.971  26.096  37.796  0.00  0.00    +0.045 C 
BRANCH  38  39
ATOM     39  CD  ARG A   1      12.429  25.757  37.838  0.00  0.00    +0.174 C 
BRANCH  39  40
ATOM     40  NE  ARG A   1      13.335  26.904  37.709  0.00  0.00    -0.265 N 
ATOM     41  CZ  ARG A   1      13.477  27.872  38.611  0.00  0.00    +0.342 C 
ATOM     42  NH2 ARG A   1      12.775  27.861  39.740  0.00  0.00    -0.292 N 
ATOM     43 HH21 ARG A   1      12.897  28.625  40.436  0.00  0.00    +0.255 HD
ATOM     44 HH22 ARG A   1      12.104  27.089  39.928  0.00  0.00    +0.255 HD
ATOM     45  NH1 ARG A   1      14.288  28.888  38.358  0.00  0.00    -0.292 N 
ATOM     46 HH11 ARG A   1      14.404  29.648  39.059  0.00  0.00    +0.255 HD
ATOM     47 HH12 ARG A   1      14.809  28.926  37.459  0.00  0.00    +0.255 HD
ATOM     48  HE  ARG A   1      13.911  26.965  36.845  0.00  0.00    +0.259 HD
ENDBRANCH  39  40
ENDBRANCH  38  39
ENDBRANCH  37  38
ENDBRANCH  34  37
ENDBRANCH  30  34
ENDBRANCH  29  31
ENDBRANCH  25  29
ENDBRANCH   1  26
BRANCH   1  49
ATOM     49  CB  HIS A   3       9.246  21.539  38.152  0.00  0.00    +0.076 C 
BRANCH  49  50
ATOM     50  CG  HIS A   3      10.334  21.181  37.198  0.00  0.00    +0.082 A 
ATOM     51  ND1 HIS A   3      11.166  20.115  37.170  0.00  0.00    -0.227 NA
ATOM     52  CE1 HIS A   3      12.018  20.292  36.112  0.00  0.00    +0.199 A 
ATOM     53  NE2 HIS A   3      11.719  21.423  35.505  0.00  0.00    -0.221 NA
ATOM     54  CD2 HIS A   3      10.700  21.982  36.137  0.00  0.00    +0.115 A 
ENDBRANCH  49  50
ENDBRANCH   1  49
TORSDOF 20
REMARK  Name = ../refined-set-2016/1xd0/1xd0_pocket.pdb
REMARK  251 active torsions:
REMARK  status: ('A' for Active; 'I' for Inactive)
REMARK    1  A    between atoms: _1  and  _3
REMARK    2  A    between atoms: _3  and  _4
REMARK    3  A    between atoms: _3  and  _6
REMARK    4  A    between atoms: _6  and  _7
REMARK    5  A    between atoms: _13  and  _15
REMARK    6  A    between atoms: _15  and  _16
REMARK    7  A    between atoms: _15  and  _18
REMARK    8  A    between atoms: _18  and  _19
REMARK    9  A    between atoms: _19  and  _20
REMARK   10  A    between atoms: _26  and  _27
REMARK   11  A    between atoms: _32  and  _34
REMARK   12  A    between atoms: _34  and  _35
REMARK   13  A    between atoms: _34  and  _37
REMARK   14  A    between atoms: _37  and  _38
REMARK   15  A    between atoms: _43  and  _45
REMARK   16  A    between atoms: _45  and  _46
REMARK   17  A    between atoms: _45  and  _48
REMARK   18  A    between atoms: _51  and  _53
REMARK   19  A    between atoms: _53  and  _54
REMARK   20  A    between atoms: _53  and  _56
REMARK   21  A    between atoms: _56  and  _57
REMARK   22  A    between atoms: _61  and  _62
REMARK   23  A    between atoms: _68  and  _69
REMARK   24  A    between atoms: _74  and  _76
REMARK   25  A    between atoms: _76  and  _77
REMARK   26  A    between atoms: _76  and  _79
REMARK   27  A    between atoms: _79  and  _80
REMARK   28  A    between atoms: _90  and  _92
REMARK   29  A    between atoms: _92  and  _93
REMARK   30  A    between atoms: _92  and  _95
REMARK   31  A    between atoms: _95  and  _96
REMARK   32  A    between atoms: _106  and  _108
REMARK   33  A    between atoms: _108  and  _109
REMARK   34  A    between atoms: _108  and  _111
REMARK   35  A    between atoms: _111  and  _112
REMARK   36  A    between atoms: _112  and  _113
REMARK   37  A    between atoms: _116  and  _118
REMARK   38  A    between atoms: _118  and  _119
REMARK   39  A    between atoms: _118  and  _121
REMARK   40  A    between atoms: _121  and  _122
REMARK   41  A    between atoms: _122  and  _123
REMARK   42  A    between atoms: _123  and  _124
REMARK   43  A    between atoms: _133  and  _135
REMARK   44  A    between atoms: _135  and  _136
REMARK   45  A    between atoms: _135  and  _138
REMARK   46  A    between atoms: _138  and  _139
REMARK   47  A    between atoms: _144  and  _145
REMARK   48  A    between atoms: _147  and  _149
REMARK   49  A    between atoms: _149  and  _150
REMARK   50  A    between atoms: _149  and  _152
REMARK   51  A    between atoms: _152  and  _153
REMARK   52  A    between atoms: _153  and  _154
REMARK   53  A    between atoms: _160  and  _161
REMARK   54  A    between atoms: _166  and  _168
REMARK   55  A    between atoms: _168  and  _169
REMARK   56  A    between atoms: _168  and  _171
REMARK   57  A    between atoms: _171  and  _172
REMARK   58  A    between atoms: _175  and  _177
REMARK   59  A    between atoms: _177  and  _178
REMARK   60  A    between atoms: _181  and  _183
REMARK   61  A    between atoms: _183  and  _184
REMARK   62  A    between atoms: _183  and  _186
REMARK   63  A    between atoms: _189  and  _191
REMARK   64  A    between atoms: _191  and  _192
REMARK   65  A    between atoms: _191  and  _194
REMARK   66  A    between atoms: _194  and  _195
REMARK   67  A    between atoms: _198  and  _200
REMARK   68  A    between atoms: _200  and  _201
REMARK   69  A    between atoms: _200  and  _203
REMARK   70  A    between atoms: _203  and  _204
REMARK   71  A    between atoms: _209  and  _211
REMARK   72  A    between atoms: _211  and  _212
REMARK   73  A    between atoms: _211  and  _214
REMARK   74  A    between atoms: _214  and  _215
REMARK   75  A    between atoms: _220  and  _222
REMARK   76  A    between atoms: _222  and  _223
REMARK   77  A    between atoms: _222  and  _225
REMARK   78  A    between atoms: _225  and  _226
REMARK   79  A    between atoms: _226  and  _227
REMARK   80  A    between atoms: _229  and  _231
REMARK   81  A    between atoms: _231  and  _232
REMARK   82  A    between atoms: _231  and  _234
REMARK   83  A    between atoms: _236  and  _238
REMARK   84  A    between atoms: _238  and  _239
REMARK   85  A    between atoms: _241  and  _243
REMARK   86  A    between atoms: _243  and  _244
REMARK   87  A    between atoms: _243  and  _246
REMARK   88  A    between atoms: _246  and  _247
REMARK   89  A    between atoms: _252  and  _254
REMARK   90  A    between atoms: _254  and  _255
REMARK   91  A    between atoms: _258  and  _260
REMARK   92  A    between atoms: _260  and  _261
REMARK   93  A    between atoms: _260  and  _263
REMARK   94  A    between atoms: _266  and  _268
REMARK   95  A    between atoms: _268  and  _269
REMARK   96  A    between atoms: _268  and  _271
REMARK   97  A    between atoms: _271  and  _272
REMARK   98  A    between atoms: _275  and  _277
REMARK   99  A    between atoms: _277  and  _278
REMARK  100  A    between atoms: _277  and  _280
REMARK  101  A    between atoms: _280  and  _281
REMARK  102  A    between atoms: _284  and  _286
REMARK  103  A    between atoms: _286  and  _287
REMARK  104  A    between atoms: _286  and  _289
REMARK  105  A    between atoms: _289  and  _290
REMARK  106  A    between atoms: _295  and  _296
REMARK  107  A    between atoms: _298  and  _300
REMARK  108  A    between atoms: _300  and  _301
REMARK  109  A    between atoms: _300  and  _303
REMARK  110  A    between atoms: _306  and  _308
REMARK  111  A    between atoms: _308  and  _309
REMARK  112  A    between atoms: _308  and  _311
REMARK  113  A    between atoms: _311  and  _312
REMARK  114  A    between atoms: _312  and  _313
REMARK  115  A    between atoms: _313  and  _314
REMARK  116  A    between atoms: _323  and  _325
REMARK  117  A    between atoms: _325  and  _326
REMARK  118  A    between atoms: _325  and  _328
REMARK  119  A    between atoms: _328  and  _329
REMARK  120  A    between atoms: _332  and  _334
REMARK  121  A    between atoms: _334  and  _335
REMARK  122  A    between atoms: _334  and  _337
REMARK  123  A    between atoms: _337  and  _338
REMARK  124  A    between atoms: _341  and  _343
REMARK  125  A    between atoms: _343  and  _344
REMARK  126  A    between atoms: _346  and  _348
REMARK  127  A    between atoms: _348  and  _349
REMARK  128  A    between atoms: _348  and  _351
REMARK  129  A    between atoms: _351  and  _352
REMARK  130  A    between atoms: _355  and  _357
REMARK  131  A    between atoms: _357  and  _358
REMARK  132  A    between atoms: _357  and  _360
REMARK  133  A    between atoms: _360  and  _361
REMARK  134  A    between atoms: _364  and  _366
REMARK  135  A    between atoms: _366  and  _367
REMARK  136  A    between atoms: _366  and  _369
REMARK  137  A    between atoms: _369  and  _370
REMARK  138  A    between atoms: _370  and  _371
REMARK  139  A    between atoms: _371  and  _372
REMARK  140  A    between atoms: _381  and  _383
REMARK  141  A    between atoms: _383  and  _384
REMARK  142  A    between atoms: _383  and  _386
REMARK  143  A    between atoms: _386  and  _387
REMARK  144  A    between atoms: _390  and  _392
REMARK  145  A    between atoms: _392  and  _393
REMARK  146  A    between atoms: _392  and  _395
REMARK  147  A    between atoms: _395  and  _396
REMARK  148  A    between atoms: _399  and  _401
REMARK  149  A    between atoms: _401  and  _402
REMARK  150  A    between atoms: _405  and  _407
REMARK  151  A    between atoms: _407  and  _408
REMARK  152  A    between atoms: _407  and  _410
REMARK  153  A    between atoms: _410  and  _411
REMARK  154  A    between atoms: _413  and  _415
REMARK  155  A    between atoms: _415  and  _416
REMARK  156  A    between atoms: _415  and  _418
REMARK  157  A    between atoms: _418  and  _419
REMARK  158  A    between atoms: _419  and  _420
REMARK  159  A    between atoms: _420  and  _421
REMARK  160  A    between atoms: _421  and  _422
REMARK  161  A    between atoms: _426  and  _428
REMARK  162  A    between atoms: _428  and  _429
REMARK  163  A    between atoms: _428  and  _431
REMARK  164  A    between atoms: _431  and  _432
REMARK  165  A    between atoms: _437  and  _439
REMARK  166  A    between atoms: _439  and  _440
REMARK  167  A    between atoms: _439  and  _442
REMARK  168  A    between atoms: _442  and  _443
REMARK  169  A    between atoms: _443  and  _444
REMARK  170  A    between atoms: _447  and  _449
REMARK  171  A    between atoms: _449  and  _450
REMARK  172  A    between atoms: _449  and  _452
REMARK  173  A    between atoms: _455  and  _457
REMARK  174  A    between atoms: _457  and  _458
REMARK  175  A    between atoms: _457  and  _460
REMARK  176  A    between atoms: _460  and  _461
REMARK  177  A    between atoms: _464  and  _466
REMARK  178  A    between atoms: _466  and  _467
REMARK  179  A    between atoms: _466  and  _469
REMARK  180  A    between atoms: _469  and  _470
REMARK  181  A    between atoms: _473  and  _475
REMARK  182  A    between atoms: _475  and  _476
REMARK  183  A    between atoms: _475  and  _478
REMARK  184  A    between atoms: _478  and  _479
REMARK  185  A    between atoms: _482  and  _484
REMARK  186  A    between atoms: _484  and  _485
REMARK  187  A    between atoms: _487  and  _489
REMARK  188  A    between atoms: _489  and  _490
REMARK  189  A    between atoms: _492  and  _494
REMARK  190  A    between atoms: _494  and  _495
REMARK  191  A    between atoms: _494  and  _497
REMARK  192  A    between atoms: _497  and  _498
REMARK  193  A    between atoms: _498  and  _499
REMARK  194  A    between atoms: _502  and  _504
REMARK  195  A    between atoms: _504  and  _505
REMARK  196  A    between atoms: _504  and  _507
REMARK  197  A    between atoms: _507  and  _508
REMARK  198  A    between atoms: _511  and  _513
REMARK  199  A    between atoms: _513  and  _514
REMARK  200  A    between atoms: _513  and  _516
REMARK  201  A    between atoms: _516  and  _517
REMARK  202  A    between atoms: _523  and  _525
REMARK  203  A    between atoms: _525  and  _526
REMARK  204  A    between atoms: _525  and  _528
REMARK  205  A    between atoms: _528  and  _529
REMARK  206  A    between atoms: _534  and  _536
REMARK  207  A    between atoms: _536  and  _537
REMARK  208  A    between atoms: _536  and  _539
REMARK  209  A    between atoms: _539  and  _540
REMARK  210  A    between atoms: _545  and  _547
REMARK  211  A    between atoms: _547  and  _548
REMARK  212  A    between atoms: _547  and  _550
REMARK  213  A    between atoms: _550  and  _551
REMARK  214  A    between atoms: _554  and  _556
REMARK  215  A    between atoms: _556  and  _557
REMARK  216  A    between atoms: _556  and  _559
REMARK  217  A    between atoms: _559  and  _560
REMARK  218  A    between atoms: _565  and  _567
REMARK  219  A    between atoms: _567  and  _568
REMARK  220  A    between atoms: _567  and  _570
REMARK  221  A    between atoms: _570  and  _571
REMARK  222  A    between atoms: _571  and  _572
REMARK  223  A    between atoms: _572  and  _573
REMARK  224  A    between atoms: _582  and  _584
REMARK  225  A    between atoms: _584  and  _585
REMARK  226  A    between atoms: _587  and  _589
REMARK  227  A    between atoms: _589  and  _590
REMARK  228  A    between atoms: _589  and  _592
REMARK  229  A    between atoms: _592  and  _593
REMARK  230  A    between atoms: _598  and  _600
REMARK  231  A    between atoms: _600  and  _601
REMARK  232  A    between atoms: _603  and  _605
REMARK  233  A    between atoms: _605  and  _606
REMARK  234  A    between atoms: _609  and  _611
REMARK  235  A    between atoms: _611  and  _612
REMARK  236  A    between atoms: _614  and  _616
REMARK  237  A    between atoms: _616  and  _617
REMARK  238  A    between atoms: _619  and  _621
REMARK  239  A    between atoms: _621  and  _622
REMARK  240  A    between atoms: _621  and  _624
REMARK  241  A    between atoms: _624  and  _625
REMARK  242  A    between atoms: _625  and  _626
REMARK  243  A    between atoms: _626  and  _627
REMARK  244  A    between atoms: _636  and  _638
REMARK  245  A    between atoms: _638  and  _639
REMARK  246  A    between atoms: _638  and  _641
REMARK  247  A    between atoms: _641  and  _642
REMARK  248  A    between atoms: _645  and  _647
REMARK  249  A    between atoms: _647  and  _648
REMARK  250  A    between atoms: _647  and  _650
REMARK  251  A    between atoms: _650  and  _651
REMARK                            x       y       z     vdW  Elec       q    Type
REMARK                         _______ _______ _______ _____ _____    ______ ____
ROOT
ATOM      1  NE  ARG A   1       7.578  27.917  50.574  0.00  0.00    -0.265 N 
ATOM      2  CZ  ARG A   1       7.557  26.625  50.255  0.00  0.00    +0.342 C 
ATOM      3  NH2 ARG A   1       8.357  25.762  50.871  0.00  0.00    -0.292 N 
ATOM      4 HH21 ARG A   1       9.008  26.094  51.611  0.00  0.00    +0.255 HD
ATOM      5 HH22 ARG A   1       8.332  24.755  50.614  0.00  0.00    +0.255 HD
ATOM      6  NH1 ARG A   1       6.730  26.194  49.316  0.00  0.00    -0.292 N 
ATOM      7 HH11 ARG A   1       6.710  25.185  49.064  0.00  0.00    +0.255 HD
ATOM      8 HH12 ARG A   1       6.100  26.864  48.831  0.00  0.00    +0.255 HD
ATOM      9  HE  ARG A   1       6.934  28.552  50.061  0.00  0.00    +0.259 HD
ENDROOT
BRANCH   1  10
ATOM     10  CD  ARG A   1       8.441  28.505  51.592  0.00  0.00    +0.174 C 
BRANCH  10  11
ATOM     11  CG  ARG A   1       8.043  29.918  51.922  0.00  0.00    +0.045 C 
BRANCH  11  12
ATOM     12  CB  ARG A   1       6.613  30.009  52.501  0.00  0.00    +0.029 C 
BRANCH  12  13
ATOM     13  CA  ARG A   1       6.188  31.436  52.879  0.00  0.00    +0.133 C 
BRANCH  13  14
ATOM     14  N   ARG A   1       4.829  31.490  53.406  0.00  0.00    -0.239 NA
ATOM     15  H   ARG A   1       4.046  31.175  52.799  0.00  0.00    +0.142 HD
ENDBRANCH  13  14
BRANCH  13  16
ATOM     16  C   ARG A   1       6.269  32.336  51.659  0.00  0.00    +0.224 C 
ATOM     17  O   ARG A   1       5.472  32.200  50.730  0.00  0.00    -0.287 OA
ENDBRANCH  13  16
ENDBRANCH  12  13
ENDBRANCH  11  12
ENDBRANCH  10  11
ENDBRANCH   1  10
TORSDOF 6
REMARK  Name = ../refined-set-2016/1xd0/1xd0_pocket.pdb
REMARK  251 active torsions:
REMARK  status: ('A' for Active; 'I' for Inactive)
REMARK    1  A    between atoms: _1  and  _3
REMARK    2  A    between atoms: _3  and  _4
REMARK    3  A    between atoms: _3  and  _6
REMARK    4  A    between atoms: _6  and  _7
REMARK    5  A    between atoms: _13  and  _15
REMARK    6  A    between atoms: _15  and  _16
REMARK    7  A    between atoms: _15  and  _18
REMARK    8  A    between atoms: _18  and  _19
REMARK    9  A    between atoms: _19  and  _20
REMARK   10  A    between atoms: _26  and  _27
REMARK   11  A    between atoms: _32  and  _34
REMARK   12  A    between atoms: _34  and  _35
REMARK   13  A    between atoms: _34  and  _37
REMARK   14  A    between atoms: _37  and  _38
REMARK   15  A    between atoms: _43  and  _45
REMARK   16  A    between atoms: _45  and  _46
REMARK   17  A    between atoms: _45  and  _48
REMARK   18  A    between atoms: _51  and  _53
REMARK   19  A    between atoms: _53  and  _54
REMARK   20  A    between atoms: _53  and  _56
REMARK   21  A    between atoms: _56  and  _57
REMARK   22  A    between atoms: _61  and  _62
REMARK   23  A    between atoms: _68  and  _69
REMARK   24  A    between atoms: _74  and  _76
REMARK   25  A    between atoms: _76  and  _77
REMARK   26  A    between atoms: _76  and  _79
REMARK   27  A    between atoms: _79  and  _80
REMARK   28  A    between atoms: _90  and  _92
REMARK   29  A    between atoms: _92  and  _93
REMARK   30  A    between atoms: _92  and  _95
REMARK   31  A    between atoms: _95  and  _96
REMARK   32  A    between atoms: _106  and  _108
REMARK   33  A    between atoms: _108  and  _109
REMARK   34  A    between atoms: _108  and  _111
REMARK   35  A    between atoms: _111  and  _112
REMARK   36  A    between atoms: _112  and  _113
REMARK   37  A    between atoms: _116  and  _118
REMARK   38  A    between atoms: _118  and  _119
REMARK   39  A    between atoms: _118  and  _121
REMARK   40  A    between atoms: _121  and  _122
REMARK   41  A    between atoms: _122  and  _123
REMARK   42  A    between atoms: _123  and  _124
REMARK   43  A    between atoms: _133  and  _135
REMARK   44  A    between atoms: _135  and  _136
REMARK   45  A    between atoms: _135  and  _138
REMARK   46  A    between atoms: _138  and  _139
REMARK   47  A    between atoms: _144  and  _145
REMARK   48  A    between atoms: _147  and  _149
REMARK   49  A    between atoms: _149  and  _150
REMARK   50  A    between atoms: _149  and  _152
REMARK   51  A    between atoms: _152  and  _153
REMARK   52  A    between atoms: _153  and  _154
REMARK   53  A    between atoms: _160  and  _161
REMARK   54  A    between atoms: _166  and  _168
REMARK   55  A    between atoms: _168  and  _169
REMARK   56  A    between atoms: _168  and  _171
REMARK   57  A    between atoms: _171  and  _172
REMARK   58  A    between atoms: _175  and  _177
REMARK   59  A    between atoms: _177  and  _178
REMARK   60  A    between atoms: _181  and  _183
REMARK   61  A    between atoms: _183  and  _184
REMARK   62  A    between atoms: _183  and  _186
REMARK   63  A    between atoms: _189  and  _191
REMARK   64  A    between atoms: _191  and  _192
REMARK   65  A    between atoms: _191  and  _194
REMARK   66  A    between atoms: _194  and  _195
REMARK   67  A    between atoms: _198  and  _200
REMARK   68  A    between atoms: _200  and  _201
REMARK   69  A    between atoms: _200  and  _203
REMARK   70  A    between atoms: _203  and  _204
REMARK   71  A    between atoms: _209  and  _211
REMARK   72  A    between atoms: _211  and  _212
REMARK   73  A    between atoms: _211  and  _214
REMARK   74  A    between atoms: _214  and  _215
REMARK   75  A    between atoms: _220  and  _222
REMARK   76  A    between atoms: _222  and  _223
REMARK   77  A    between atoms: _222  and  _225
REMARK   78  A    between atoms: _225  and  _226
REMARK   79  A    between atoms: _226  and  _227
REMARK   80  A    between atoms: _229  and  _231
REMARK   81  A    between atoms: _231  and  _232
REMARK   82  A    between atoms: _231  and  _234
REMARK   83  A    between atoms: _236  and  _238
REMARK   84  A    between atoms: _238  and  _239
REMARK   85  A    between atoms: _241  and  _243
REMARK   86  A    between atoms: _243  and  _244
REMARK   87  A    between atoms: _243  and  _246
REMARK   88  A    between atoms: _246  and  _247
REMARK   89  A    between atoms: _252  and  _254
REMARK   90  A    between atoms: _254  and  _255
REMARK   91  A    between atoms: _258  and  _260
REMARK   92  A    between atoms: _260  and  _261
REMARK   93  A    between atoms: _260  and  _263
REMARK   94  A    between atoms: _266  and  _268
REMARK   95  A    between atoms: _268  and  _269
REMARK   96  A    between atoms: _268  and  _271
REMARK   97  A    between atoms: _271  and  _272
REMARK   98  A    between atoms: _275  and  _277
REMARK   99  A    between atoms: _277  and  _278
REMARK  100  A    between atoms: _277  and  _280
REMARK  101  A    between atoms: _280  and  _281
REMARK  102  A    between atoms: _284  and  _286
REMARK  103  A    between atoms: _286  and  _287
REMARK  104  A    between atoms: _286  and  _289
REMARK  105  A    between atoms: _289  and  _290
REMARK  106  A    between atoms: _295  and  _296
REMARK  107  A    between atoms: _298  and  _300
REMARK  108  A    between atoms: _300  and  _301
REMARK  109  A    between atoms: _300  and  _303
REMARK  110  A    between atoms: _306  and  _308
REMARK  111  A    between atoms: _308  and  _309
REMARK  112  A    between atoms: _308  and  _311
REMARK  113  A    between atoms: _311  and  _312
REMARK  114  A    between atoms: _312  and  _313
REMARK  115  A    between atoms: _313  and  _314
REMARK  116  A    between atoms: _323  and  _325
REMARK  117  A    between atoms: _325  and  _326
REMARK  118  A    between atoms: _325  and  _328
REMARK  119  A    between atoms: _328  and  _329
REMARK  120  A    between atoms: _332  and  _334
REMARK  121  A    between atoms: _334  and  _335
REMARK  122  A    between atoms: _334  and  _337
REMARK  123  A    between atoms: _337  and  _338
REMARK  124  A    between atoms: _341  and  _343
REMARK  125  A    between atoms: _343  and  _344
REMARK  126  A    between atoms: _346  and  _348
REMARK  127  A    between atoms: _348  and  _349
REMARK  128  A    between atoms: _348  and  _351
REMARK  129  A    between atoms: _351  and  _352
REMARK  130  A    between atoms: _355  and  _357
REMARK  131  A    between atoms: _357  and  _358
REMARK  132  A    between atoms: _357  and  _360
REMARK  133  A    between atoms: _360  and  _361
REMARK  134  A    between atoms: _364  and  _366
REMARK  135  A    between atoms: _366  and  _367
REMARK  136  A    between atoms: _366  and  _369
REMARK  137  A    between atoms: _369  and  _370
REMARK  138  A    between atoms: _370  and  _371
REMARK  139  A    between atoms: _371  and  _372
REMARK  140  A    between atoms: _381  and  _383
REMARK  141  A    between atoms: _383  and  _384
REMARK  142  A    between atoms: _383  and  _386
REMARK  143  A    between atoms: _386  and  _387
REMARK  144  A    between atoms: _390  and  _392
REMARK  145  A    between atoms: _392  and  _393
REMARK  146  A    between atoms: _392  and  _395
REMARK  147  A    between atoms: _395  and  _396
REMARK  148  A    between atoms: _399  and  _401
REMARK  149  A    between atoms: _401  and  _402
REMARK  150  A    between atoms: _405  and  _407
REMARK  151  A    between atoms: _407  and  _408
REMARK  152  A    between atoms: _407  and  _410
REMARK  153  A    between atoms: _410  and  _411
REMARK  154  A    between atoms: _413  and  _415
REMARK  155  A    between atoms: _415  and  _416
REMARK  156  A    between atoms: _415  and  _418
REMARK  157  A    between atoms: _418  and  _419
REMARK  158  A    between atoms: _419  and  _420
REMARK  159  A    between atoms: _420  and  _421
REMARK  160  A    between atoms: _421  and  _422
REMARK  161  A    between atoms: _426  and  _428
REMARK  162  A    between atoms: _428  and  _429
REMARK  163  A    between atoms: _428  and  _431
REMARK  164  A    between atoms: _431  and  _432
REMARK  165  A    between atoms: _437  and  _439
REMARK  166  A    between atoms: _439  and  _440
REMARK  167  A    between atoms: _439  and  _442
REMARK  168  A    between atoms: _442  and  _443
REMARK  169  A    between atoms: _443  and  _444
REMARK  170  A    between atoms: _447  and  _449
REMARK  171  A    between atoms: _449  and  _450
REMARK  172  A    between atoms: _449  and  _452
REMARK  173  A    between atoms: _455  and  _457
REMARK  174  A    between atoms: _457  and  _458
REMARK  175  A    between atoms: _457  and  _460
REMARK  176  A    between atoms: _460  and  _461
REMARK  177  A    between atoms: _464  and  _466
REMARK  178  A    between atoms: _466  and  _467
REMARK  179  A    between atoms: _466  and  _469
REMARK  180  A    between atoms: _469  and  _470
REMARK  181  A    between atoms: _473  and  _475
REMARK  182  A    between atoms: _475  and  _476
REMARK  183  A    between atoms: _475  and  _478
REMARK  184  A    between atoms: _478  and  _479
REMARK  185  A    between atoms: _482  and  _484
REMARK  186  A    between atoms: _484  and  _485
REMARK  187  A    between atoms: _487  and  _489
REMARK  188  A    between atoms: _489  and  _490
REMARK  189  A    between atoms: _492  and  _494
REMARK  190  A    between atoms: _494  and  _495
REMARK  191  A    between atoms: _494  and  _497
REMARK  192  A    between atoms: _497  and  _498
REMARK  193  A    between atoms: _498  and  _499
REMARK  194  A    between atoms: _502  and  _504
REMARK  195  A    between atoms: _504  and  _505
REMARK  196  A    between atoms: _504  and  _507
REMARK  197  A    between atoms: _507  and  _508
REMARK  198  A    between atoms: _511  and  _513
REMARK  199  A    between atoms: _513  and  _514
REMARK  200  A    between atoms: _513  and  _516
REMARK  201  A    between atoms: _516  and  _517
REMARK  202  A    between atoms: _523  and  _525
REMARK  203  A    between atoms: _525  and  _526
REMARK  204  A    between atoms: _525  and  _528
REMARK  205  A    between atoms: _528  and  _529
REMARK  206  A    between atoms: _534  and  _536
REMARK  207  A    between atoms: _536  and  _537
REMARK  208  A    between atoms: _536  and  _539
REMARK  209  A    between atoms: _539  and  _540
REMARK  210  A    between atoms: _545  and  _547
REMARK  211  A    between atoms: _547  and  _548
REMARK  212  A    between atoms: _547  and  _550
REMARK  213  A    between atoms: _550  and  _551
REMARK  214  A    between atoms: _554  and  _556
REMARK  215  A    between atoms: _556  and  _557
REMARK  216  A    between atoms: _556  and  _559
REMARK  217  A    between atoms: _559  and  _560
REMARK  218  A    between atoms: _565  and  _567
REMARK  219  A    between atoms: _567  and  _568
REMARK  220  A    between atoms: _567  and  _570
REMARK  221  A    between atoms: _570  and  _571
REMARK  222  A    between atoms: _571  and  _572
REMARK  223  A    between atoms: _572  and  _573
REMARK  224  A    between atoms: _582  and  _584
REMARK  225  A    between atoms: _584  and  _585
REMARK  226  A    between atoms: _587  and  _589
REMARK  227  A    between atoms: _589  and  _590
REMARK  228  A    between atoms: _589  and  _592
REMARK  229  A    between atoms: _592  and  _593
REMARK  230  A    between atoms: _598  and  _600
REMARK  231  A    between atoms: _600  and  _601
REMARK  232  A    between atoms: _603  and  _605
REMARK  233  A    between atoms: _605  and  _606
REMARK  234  A    between atoms: _609  and  _611
REMARK  235  A    between atoms: _611  and  _612
REMARK  236  A    between atoms: _614  and  _616
REMARK  237  A    between atoms: _616  and  _617
REMARK  238  A    between atoms: _619  and  _621
REMARK  239  A    between atoms: _621  and  _622
REMARK  240  A    between atoms: _621  and  _624
REMARK  241  A    between atoms: _624  and  _625
REMARK  242  A    between atoms: _625  and  _626
REMARK  243  A    between atoms: _626  and  _627
REMARK  244  A    between atoms: _636  and  _638
REMARK  245  A    between atoms: _638  and  _639
REMARK  246  A    between atoms: _638  and  _641
REMARK  247  A    between atoms: _641  and  _642
REMARK  248  A    between atoms: _645  and  _647
REMARK  249  A    between atoms: _647  and  _648
REMARK  250  A    between atoms: _647  and  _650
REMARK  251  A    between atoms: _650  and  _651
REMARK                            x       y       z     vdW  Elec       q    Type
REMARK                         _______ _______ _______ _____ _____    ______ ____
ROOT
ATOM      1  CA  TRP A   2      16.631  23.750  34.082  0.00  0.00    +0.141 C 
ENDROOT
BRANCH   1   4
ATOM      2  C   ASP A   1      14.444  24.817  33.898  0.00  0.00    +0.239 C 
ATOM      3  O   ASP A   1      14.217  24.715  35.099  0.00  0.00    -0.274 OA
ATOM      4  N   TRP A   2      15.567  24.390  33.332  0.00  0.00    -0.298 N 
ATOM      5  H   TRP A   2      15.689  24.520  32.307  0.00  0.00    +0.150 HD
BRANCH   2   6
ATOM      6  CA  ASP A   1      13.416  25.453  32.950  0.00  0.00    +0.156 C 
BRANCH   6   7
ATOM      7  N   ASP A   1      13.938  25.633  31.588  0.00  0.00    -0.238 NA
ATOM      8  H   ASP A   1      13.554  25.052  30.815  0.00  0.00    +0.142 HD
ENDBRANCH   6   7
BRANCH   6   9
ATOM      9  CB  ASP A   1      12.130  24.617  32.920  0.00  0.00    +0.140 C 
BRANCH   9  10
ATOM     10  CG  ASP A   1      12.355  23.197  32.404  0.00  0.00    +0.367 C 
ATOM     11  OD2 ASP A   1      11.533  22.326  32.733  0.00  0.00    -0.246 OA
ATOM     12  OD1 ASP A   1      13.346  22.940  31.685  0.00  0.00    -0.246 OA
ENDBRANCH   9  10
ENDBRANCH   6   9
ENDBRANCH   2   6
ENDBRANCH   1   4
BRANCH   1  13
ATOM     13  C   TRP A   2      17.701  24.714  34.591  0.00  0.00    +0.227 C 
ATOM     14  O   TRP A   2      18.482  24.336  35.450  0.00  0.00    -0.286 OA
ENDBRANCH   1  13
BRANCH   1  15
ATOM     15  CB  TRP A   2      17.279  22.658  33.210  0.00  0.00    +0.056 C 
BRANCH  15  16
ATOM     16  CG  TRP A   2      17.829  23.188  31.913  0.00  0.00    -0.002 A 
ATOM     17  CD2 TRP A   2      19.101  23.823  31.711  0.00  0.00    +0.013 A 
ATOM     18  CE3 TRP A   2      20.220  24.080  32.551  0.00  0.00    +0.001 A 
ATOM     19  CZ3 TRP A   2      21.333  24.758  32.025  0.00  0.00    +0.000 A 
ATOM     20  CH2 TRP A   2      21.340  25.174  30.662  0.00  0.00    +0.001 A 
ATOM     21  CZ2 TRP A   2      20.255  24.928  29.819  0.00  0.00    +0.017 A 
ATOM     22  CE2 TRP A   2      19.140  24.248  30.361  0.00  0.00    +0.056 A 
ATOM     23  NE1 TRP A   2      17.954  23.879  29.784  0.00  0.00    -0.352 N 
ATOM     24  HE1 TRP A   2      17.683  24.055  28.796  0.00  0.00    +0.166 HD
ATOM     25  CD1 TRP A   2      17.179  23.238  30.721  0.00  0.00    +0.068 A 
ENDBRANCH  15  16
ENDBRANCH   1  15
TORSDOF 8
REMARK  Name = ../refined-set-2016/1xd0/1xd0_pocket.pdb
REMARK  251 active torsions:
REMARK  status: ('A' for Active; 'I' for Inactive)
REMARK    1  A    between atoms: _1  and  _3
REMARK    2  A    between atoms: _3  and  _4
REMARK    3  A    between atoms: _3  and  _6
REMARK    4  A    between atoms: _6  and  _7
REMARK    5  A    between atoms: _13  and  _15
REMARK    6  A    between atoms: _15  and  _16
REMARK    7  A    between atoms: _15  and  _18
REMARK    8  A    between atoms: _18  and  _19
REMARK    9  A    between atoms: _19  and  _20
REMARK   10  A    between atoms: _26  and  _27
REMARK   11  A    between atoms: _32  and  _34
REMARK   12  A    between atoms: _34  and  _35
REMARK   13  A    between atoms: _34  and  _37
REMARK   14  A    between atoms: _37  and  _38
REMARK   15  A    between atoms: _43  and  _45
REMARK   16  A    between atoms: _45  and  _46
REMARK   17  A    between atoms: _45  and  _48
REMARK   18  A    between atoms: _51  and  _53
REMARK   19  A    between atoms: _53  and  _54
REMARK   20  A    between atoms: _53  and  _56
REMARK   21  A    between atoms: _56  and  _57
REMARK   22  A    between atoms: _61  and  _62
REMARK   23  A    between atoms: _68  and  _69
REMARK   24  A    between atoms: _74  and  _76
REMARK   25  A    between atoms: _76  and  _77
REMARK   26  A    between atoms: _76  and  _79
REMARK   27  A    between atoms: _79  and  _80
REMARK   28  A    between atoms: _90  and  _92
REMARK   29  A    between atoms: _92  and  _93
REMARK   30  A    between atoms: _92  and  _95
REMARK   31  A    between atoms: _95  and  _96
REMARK   32  A    between atoms: _106  and  _108
REMARK   33  A    between atoms: _108  and  _109
REMARK   34  A    between atoms: _108  and  _111
REMARK   35  A    between atoms: _111  and  _112
REMARK   36  A    between atoms: _112  and  _113
REMARK   37  A    between atoms: _116  and  _118
REMARK   38  A    between atoms: _118  and  _119
REMARK   39  A    between atoms: _118  and  _121
REMARK   40  A    between atoms: _121  and  _122
REMARK   41  A    between atoms: _122  and  _123
REMARK   42  A    between atoms: _123  and  _124
REMARK   43  A    between atoms: _133  and  _135
REMARK   44  A    between atoms: _135  and  _136
REMARK   45  A    between atoms: _135  and  _138
REMARK   46  A    between atoms: _138  and  _139
REMARK   47  A    between atoms: _144  and  _145
REMARK   48  A    between atoms: _147  and  _149
REMARK   49  A    between atoms: _149  and  _150
REMARK   50  A    between atoms: _149  and  _152
REMARK   51  A    between atoms: _152  and  _153
REMARK   52  A    between atoms: _153  and  _154
REMARK   53  A    between atoms: _160  and  _161
REMARK   54  A    between atoms: _166  and  _168
REMARK   55  A    between atoms: _168  and  _169
REMARK   56  A    between atoms: _168  and  _171
REMARK   57  A    between atoms: _171  and  _172
REMARK   58  A    between atoms: _175  and  _177
REMARK   59  A    between atoms: _177  and  _178
REMARK   60  A    between atoms: _181  and  _183
REMARK   61  A    between atoms: _183  and  _184
REMARK   62  A    between atoms: _183  and  _186
REMARK   63  A    between atoms: _189  and  _191
REMARK   64  A    between atoms: _191  and  _192
REMARK   65  A    between atoms: _191  and  _194
REMARK   66  A    between atoms: _194  and  _195
REMARK   67  A    between atoms: _198  and  _200
REMARK   68  A    between atoms: _200  and  _201
REMARK   69  A    between atoms: _200  and  _203
REMARK   70  A    between atoms: _203  and  _204
REMARK   71  A    between atoms: _209  and  _211
REMARK   72  A    between atoms: _211  and  _212
REMARK   73  A    between atoms: _211  and  _214
REMARK   74  A    between atoms: _214  and  _215
REMARK   75  A    between atoms: _220  and  _222
REMARK   76  A    between atoms: _222  and  _223
REMARK   77  A    between atoms: _222  and  _225
REMARK   78  A    between atoms: _225  and  _226
REMARK   79  A    between atoms: _226  and  _227
REMARK   80  A    between atoms: _229  and  _231
REMARK   81  A    between atoms: _231  and  _232
REMARK   82  A    between atoms: _231  and  _234
REMARK   83  A    between atoms: _236  and  _238
REMARK   84  A    between atoms: _238  and  _239
REMARK   85  A    between atoms: _241  and  _243
REMARK   86  A    between atoms: _243  and  _244
REMARK   87  A    between atoms: _243  and  _246
REMARK   88  A    between atoms: _246  and  _247
REMARK   89  A    between atoms: _252  and  _254
REMARK   90  A    between atoms: _254  and  _255
REMARK   91  A    between atoms: _258  and  _260
REMARK   92  A    between atoms: _260  and  _261
REMARK   93  A    between atoms: _260  and  _263
REMARK   94  A    between atoms: _266  and  _268
REMARK   95  A    between atoms: _268  and  _269
REMARK   96  A    between atoms: _268  and  _271
REMARK   97  A    between atoms: _271  and  _272
REMARK   98  A    between atoms: _275  and  _277
REMARK   99  A    between atoms: _277  and  _278
REMARK  100  A    between atoms: _277  and  _280
REMARK  101  A    between atoms: _280  and  _281
REMARK  102  A    between atoms: _284  and  _286
REMARK  103  A    between atoms: _286  and  _287
REMARK  104  A    between atoms: _286  and  _289
REMARK  105  A    between atoms: _289  and  _290
REMARK  106  A    between atoms: _295  and  _296
REMARK  107  A    between atoms: _298  and  _300
REMARK  108  A    between atoms: _300  and  _301
REMARK  109  A    between atoms: _300  and  _303
REMARK  110  A    between atoms: _306  and  _308
REMARK  111  A    between atoms: _308  and  _309
REMARK  112  A    between atoms: _308  and  _311
REMARK  113  A    between atoms: _311  and  _312
REMARK  114  A    between atoms: _312  and  _313
REMARK  115  A    between atoms: _313  and  _314
REMARK  116  A    between atoms: _323  and  _325
REMARK  117  A    between atoms: _325  and  _326
REMARK  118  A    between atoms: _325  and  _328
REMARK  119  A    between atoms: _328  and  _329
REMARK  120  A    between atoms: _332  and  _334
REMARK  121  A    between atoms: _334  and  _335
REMARK  122  A    between atoms: _334  and  _337
REMARK  123  A    between atoms: _337  and  _338
REMARK  124  A    between atoms: _341  and  _343
REMARK  125  A    between atoms: _343  and  _344
REMARK  126  A    between atoms: _346  and  _348
REMARK  127  A    between atoms: _348  and  _349
REMARK  128  A    between atoms: _348  and  _351
REMARK  129  A    between atoms: _351  and  _352
REMARK  130  A    between atoms: _355  and  _357
REMARK  131  A    between atoms: _357  and  _358
REMARK  132  A    between atoms: _357  and  _360
REMARK  133  A    between atoms: _360  and  _361
REMARK  134  A    between atoms: _364  and  _366
REMARK  135  A    between atoms: _366  and  _367
REMARK  136  A    between atoms: _366  and  _369
REMARK  137  A    between atoms: _369  and  _370
REMARK  138  A    between atoms: _370  and  _371
REMARK  139  A    between atoms: _371  and  _372
REMARK  140  A    between atoms: _381  and  _383
REMARK  141  A    between atoms: _383  and  _384
REMARK  142  A    between atoms: _383  and  _386
REMARK  143  A    between atoms: _386  and  _387
REMARK  144  A    between atoms: _390  and  _392
REMARK  145  A    between atoms: _392  and  _393
REMARK  146  A    between atoms: _392  and  _395
REMARK  147  A    between atoms: _395  and  _396
REMARK  148  A    between atoms: _399  and  _401
REMARK  149  A    between atoms: _401  and  _402
REMARK  150  A    between atoms: _405  and  _407
REMARK  151  A    between atoms: _407  and  _408
REMARK  152  A    between atoms: _407  and  _410
REMARK  153  A    between atoms: _410  and  _411
REMARK  154  A    between atoms: _413  and  _415
REMARK  155  A    between atoms: _415  and  _416
REMARK  156  A    between atoms: _415  and  _418
REMARK  157  A    between atoms: _418  and  _419
REMARK  158  A    between atoms: _419  and  _420
REMARK  159  A    between atoms: _420  and  _421
REMARK  160  A    between atoms: _421  and  _422
REMARK  161  A    between atoms: _426  and  _428
REMARK  162  A    between atoms: _428  and  _429
REMARK  163  A    between atoms: _428  and  _431
REMARK  164  A    between atoms: _431  and  _432
REMARK  165  A    between atoms: _437  and  _439
REMARK  166  A    between atoms: _439  and  _440
REMARK  167  A    between atoms: _439  and  _442
REMARK  168  A    between atoms: _442  and  _443
REMARK  169  A    between atoms: _443  and  _444
REMARK  170  A    between atoms: _447  and  _449
REMARK  171  A    between atoms: _449  and  _450
REMARK  172  A    between atoms: _449  and  _452
REMARK  173  A    between atoms: _455  and  _457
REMARK  174  A    between atoms: _457  and  _458
REMARK  175  A    between atoms: _457  and  _460
REMARK  176  A    between atoms: _460  and  _461
REMARK  177  A    between atoms: _464  and  _466
REMARK  178  A    between atoms: _466  and  _467
REMARK  179  A    between atoms: _466  and  _469
REMARK  180  A    between atoms: _469  and  _470
REMARK  181  A    between atoms: _473  and  _475
REMARK  182  A    between atoms: _475  and  _476
REMARK  183  A    between atoms: _475  and  _478
REMARK  184  A    between atoms: _478  and  _479
REMARK  185  A    between atoms: _482  and  _484
REMARK  186  A    between atoms: _484  and  _485
REMARK  187  A    between atoms: _487  and  _489
REMARK  188  A    between atoms: _489  and  _490
REMARK  189  A    between atoms: _492  and  _494
REMARK  190  A    between atoms: _494  and  _495
REMARK  191  A    between atoms: _494  and  _497
REMARK  192  A    between atoms: _497  and  _498
REMARK  193  A    between atoms: _498  and  _499
REMARK  194  A    between atoms: _502  and  _504
REMARK  195  A    between atoms: _504  and  _505
REMARK  196  A    between atoms: _504  and  _507
REMARK  197  A    between atoms: _507  and  _508
REMARK  198  A    between atoms: _511  and  _513
REMARK  199  A    between atoms: _513  and  _514
REMARK  200  A    between atoms: _513  and  _516
REMARK  201  A    between atoms: _516  and  _517
REMARK  202  A    between atoms: _523  and  _525
REMARK  203  A    between atoms: _525  and  _526
REMARK  204  A    between atoms: _525  and  _528
REMARK  205  A    between atoms: _528  and  _529
REMARK  206  A    between atoms: _534  and  _536
REMARK  207  A    between atoms: _536  and  _537
REMARK  208  A    between atoms: _536  and  _539
REMARK  209  A    between atoms: _539  and  _540
REMARK  210  A    between atoms: _545  and  _547
REMARK  211  A    between atoms: _547  and  _548
REMARK  212  A    between atoms: _547  and  _550
REMARK  213  A    between atoms: _550  and  _551
REMARK  214  A    between atoms: _554  and  _556
REMARK  215  A    between atoms: _556  and  _557
REMARK  216  A    between atoms: _556  and  _559
REMARK  217  A    between atoms: _559  and  _560
REMARK  218  A    between atoms: _565  and  _567
REMARK  219  A    between atoms: _567  and  _568
REMARK  220  A    between atoms: _567  and  _570
REMARK  221  A    between atoms: _570  and  _571
REMARK  222  A    between atoms: _571  and  _572
REMARK  223  A    between atoms: _572  and  _573
REMARK  224  A    between atoms: _582  and  _584
REMARK  225  A    between atoms: _584  and  _585
REMARK  226  A    between atoms: _587  and  _589
REMARK  227  A    between atoms: _589  and  _590
REMARK  228  A    between atoms: _589  and  _592
REMARK  229  A    between atoms: _592  and  _593
REMARK  230  A    between atoms: _598  and  _600
REMARK  231  A    between atoms: _600  and  _601
REMARK  232  A    between atoms: _603  and  _605
REMARK  233  A    between atoms: _605  and  _606
REMARK  234  A    between atoms: _609  and  _611
REMARK  235  A    between atoms: _611  and  _612
REMARK  236  A    between atoms: _614  and  _616
REMARK  237  A    between atoms: _616  and  _617
REMARK  238  A    between atoms: _619  and  _621
REMARK  239  A    between atoms: _621  and  _622
REMARK  240  A    between atoms: _621  and  _624
REMARK  241  A    between atoms: _624  and  _625
REMARK  242  A    between atoms: _625  and  _626
REMARK  243  A    between atoms: _626  and  _627
REMARK  244  A    between atoms: _636  and  _638
REMARK  245  A    between atoms: _638  and  _639
REMARK  246  A    between atoms: _638  and  _641
REMARK  247  A    between atoms: _641  and  _642
REMARK  248  A    between atoms: _645  and  _647
REMARK  249  A    between atoms: _647  and  _648
REMARK  250  A    between atoms: _647  and  _650
REMARK  251  A    between atoms: _650  and  _651
REMARK                            x       y       z     vdW  Elec       q    Type
REMARK                         _______ _______ _______ _____ _____    ______ ____
ROOT
ATOM      1  O   HOH     1       6.730  21.204  44.442  0.00  0.00    +0.000 OA
ENDROOT
TORSDOF 0
REMARK  Name = ../refined-set-2016/1xd0/1xd0_pocket.pdb
REMARK  251 active torsions:
REMARK  status: ('A' for Active; 'I' for Inactive)
REMARK    1  A    between atoms: _1  and  _3
REMARK    2  A    between atoms: _3  and  _4
REMARK    3  A    between atoms: _3  and  _6
REMARK    4  A    between atoms: _6  and  _7
REMARK    5  A    between atoms: _13  and  _15
REMARK    6  A    between atoms: _15  and  _16
REMARK    7  A    between atoms: _15  and  _18
REMARK    8  A    between atoms: _18  and  _19
REMARK    9  A    between atoms: _19  and  _20
REMARK   10  A    between atoms: _26  and  _27
REMARK   11  A    between atoms: _32  and  _34
REMARK   12  A    between atoms: _34  and  _35
REMARK   13  A    between atoms: _34  and  _37
REMARK   14  A    between atoms: _37  and  _38
REMARK   15  A    between atoms: _43  and  _45
REMARK   16  A    between atoms: _45  and  _46
REMARK   17  A    between atoms: _45  and  _48
REMARK   18  A    between atoms: _51  and  _53
REMARK   19  A    between atoms: _53  and  _54
REMARK   20  A    between atoms: _53  and  _56
REMARK   21  A    between atoms: _56  and  _57
REMARK   22  A    between atoms: _61  and  _62
REMARK   23  A    between atoms: _68  and  _69
REMARK   24  A    between atoms: _74  and  _76
REMARK   25  A    between atoms: _76  and  _77
REMARK   26  A    between atoms: _76  and  _79
REMARK   27  A    between atoms: _79  and  _80
REMARK   28  A    between atoms: _90  and  _92
REMARK   29  A    between atoms: _92  and  _93
REMARK   30  A    between atoms: _92  and  _95
REMARK   31  A    between atoms: _95  and  _96
REMARK   32  A    between atoms: _106  and  _108
REMARK   33  A    between atoms: _108  and  _109
REMARK   34  A    between atoms: _108  and  _111
REMARK   35  A    between atoms: _111  and  _112
REMARK   36  A    between atoms: _112  and  _113
REMARK   37  A    between atoms: _116  and  _118
REMARK   38  A    between atoms: _118  and  _119
REMARK   39  A    between atoms: _118  and  _121
REMARK   40  A    between atoms: _121  and  _122
REMARK   41  A    between atoms: _122  and  _123
REMARK   42  A    between atoms: _123  and  _124
REMARK   43  A    between atoms: _133  and  _135
REMARK   44  A    between atoms: _135  and  _136
REMARK   45  A    between atoms: _135  and  _138
REMARK   46  A    between atoms: _138  and  _139
REMARK   47  A    between atoms: _144  and  _145
REMARK   48  A    between atoms: _147  and  _149
REMARK   49  A    between atoms: _149  and  _150
REMARK   50  A    between atoms: _149  and  _152
REMARK   51  A    between atoms: _152  and  _153
REMARK   52  A    between atoms: _153  and  _154
REMARK   53  A    between atoms: _160  and  _161
REMARK   54  A    between atoms: _166  and  _168
REMARK   55  A    between atoms: _168  and  _169
REMARK   56  A    between atoms: _168  and  _171
REMARK   57  A    between atoms: _171  and  _172
REMARK   58  A    between atoms: _175  and  _177
REMARK   59  A    between atoms: _177  and  _178
REMARK   60  A    between atoms: _181  and  _183
REMARK   61  A    between atoms: _183  and  _184
REMARK   62  A    between atoms: _183  and  _186
REMARK   63  A    between atoms: _189  and  _191
REMARK   64  A    between atoms: _191  and  _192
REMARK   65  A    between atoms: _191  and  _194
REMARK   66  A    between atoms: _194  and  _195
REMARK   67  A    between atoms: _198  and  _200
REMARK   68  A    between atoms: _200  and  _201
REMARK   69  A    between atoms: _200  and  _203
REMARK   70  A    between atoms: _203  and  _204
REMARK   71  A    between atoms: _209  and  _211
REMARK   72  A    between atoms: _211  and  _212
REMARK   73  A    between atoms: _211  and  _214
REMARK   74  A    between atoms: _214  and  _215
REMARK   75  A    between atoms: _220  and  _222
REMARK   76  A    between atoms: _222  and  _223
REMARK   77  A    between atoms: _222  and  _225
REMARK   78  A    between atoms: _225  and  _226
REMARK   79  A    between atoms: _226  and  _227
REMARK   80  A    between atoms: _229  and  _231
REMARK   81  A    between atoms: _231  and  _232
REMARK   82  A    between atoms: _231  and  _234
REMARK   83  A    between atoms: _236  and  _238
REMARK   84  A    between atoms: _238  and  _239
REMARK   85  A    between atoms: _241  and  _243
REMARK   86  A    between atoms: _243  and  _244
REMARK   87  A    between atoms: _243  and  _246
REMARK   88  A    between atoms: _246  and  _247
REMARK   89  A    between atoms: _252  and  _254
REMARK   90  A    between atoms: _254  and  _255
REMARK   91  A    between atoms: _258  and  _260
REMARK   92  A    between atoms: _260  and  _261
REMARK   93  A    between atoms: _260  and  _263
REMARK   94  A    between atoms: _266  and  _268
REMARK   95  A    between atoms: _268  and  _269
REMARK   96  A    between atoms: _268  and  _271
REMARK   97  A    between atoms: _271  and  _272
REMARK   98  A    between atoms: _275  and  _277
REMARK   99  A    between atoms: _277  and  _278
REMARK  100  A    between atoms: _277  and  _280
REMARK  101  A    between atoms: _280  and  _281
REMARK  102  A    between atoms: _284  and  _286
REMARK  103  A    between atoms: _286  and  _287
REMARK  104  A    between atoms: _286  and  _289
REMARK  105  A    between atoms: _289  and  _290
REMARK  106  A    between atoms: _295  and  _296
REMARK  107  A    between atoms: _298  and  _300
REMARK  108  A    between atoms: _300  and  _301
REMARK  109  A    between atoms: _300  and  _303
REMARK  110  A    between atoms: _306  and  _308
REMARK  111  A    between atoms: _308  and  _309
REMARK  112  A    between atoms: _308  and  _311
REMARK  113  A    between atoms: _311  and  _312
REMARK  114  A    between atoms: _312  and  _313
REMARK  115  A    between atoms: _313  and  _314
REMARK  116  A    between atoms: _323  and  _325
REMARK  117  A    between atoms: _325  and  _326
REMARK  118  A    between atoms: _325  and  _328
REMARK  119  A    between atoms: _328  and  _329
REMARK  120  A    between atoms: _332  and  _334
REMARK  121  A    between atoms: _334  and  _335
REMARK  122  A    between atoms: _334  and  _337
REMARK  123  A    between atoms: _337  and  _338
REMARK  124  A    between atoms: _341  and  _343
REMARK  125  A    between atoms: _343  and  _344
REMARK  126  A    between atoms: _346  and  _348
REMARK  127  A    between atoms: _348  and  _349
REMARK  128  A    between atoms: _348  and  _351
REMARK  129  A    between atoms: _351  and  _352
REMARK  130  A    between atoms: _355  and  _357
REMARK  131  A    between atoms: _357  and  _358
REMARK  132  A    between atoms: _357  and  _360
REMARK  133  A    between atoms: _360  and  _361
REMARK  134  A    between atoms: _364  and  _366
REMARK  135  A    between atoms: _366  and  _367
REMARK  136  A    between atoms: _366  and  _369
REMARK  137  A    between atoms: _369  and  _370
REMARK  138  A    between atoms: _370  and  _371
REMARK  139  A    between atoms: _371  and  _372
REMARK  140  A    between atoms: _381  and  _383
REMARK  141  A    between atoms: _383  and  _384
REMARK  142  A    between atoms: _383  and  _386
REMARK  143  A    between atoms: _386  and  _387
REMARK  144  A    between atoms: _390  and  _392
REMARK  145  A    between atoms: _392  and  _393
REMARK  146  A    between atoms: _392  and  _395
REMARK  147  A    between atoms: _395  and  _396
REMARK  148  A    between atoms: _399  and  _401
REMARK  149  A    between atoms: _401  and  _402
REMARK  150  A    between atoms: _405  and  _407
REMARK  151  A    between atoms: _407  and  _408
REMARK  152  A    between atoms: _407  and  _410
REMARK  153  A    between atoms: _410  and  _411
REMARK  154  A    between atoms: _413  and  _415
REMARK  155  A    between atoms: _415  and  _416
REMARK  156  A    between atoms: _415  and  _418
REMARK  157  A    between atoms: _418  and  _419
REMARK  158  A    between atoms: _419  and  _420
REMARK  159  A    between atoms: _420  and  _421
REMARK  160  A    between atoms: _421  and  _422
REMARK  161  A    between atoms: _426  and  _428
REMARK  162  A    between atoms: _428  and  _429
REMARK  163  A    between atoms: _428  and  _431
REMARK  164  A    between atoms: _431  and  _432
REMARK  165  A    between atoms: _437  and  _439
REMARK  166  A    between atoms: _439  and  _440
REMARK  167  A    between atoms: _439  and  _442
REMARK  168  A    between atoms: _442  and  _443
REMARK  169  A    between atoms: _443  and  _444
REMARK  170  A    between atoms: _447  and  _449
REMARK  171  A    between atoms: _449  and  _450
REMARK  172  A    between atoms: _449  and  _452
REMARK  173  A    between atoms: _455  and  _457
REMARK  174  A    between atoms: _457  and  _458
REMARK  175  A    between atoms: _457  and  _460
REMARK  176  A    between atoms: _460  and  _461
REMARK  177  A    between atoms: _464  and  _466
REMARK  178  A    between atoms: _466  and  _467
REMARK  179  A    between atoms: _466  and  _469
REMARK  180  A    between atoms: _469  and  _470
REMARK  181  A    between atoms: _473  and  _475
REMARK  182  A    between atoms: _475  and  _476
REMARK  183  A    between atoms: _475  and  _478
REMARK  184  A    between atoms: _478  and  _479
REMARK  185  A    between atoms: _482  and  _484
REMARK  186  A    between atoms: _484  and  _485
REMARK  187  A    between atoms: _487  and  _489
REMARK  188  A    between atoms: _489  and  _490
REMARK  189  A    between atoms: _492  and  _494
REMARK  190  A    between atoms: _494  and  _495
REMARK  191  A    between atoms: _494  and  _497
REMARK  192  A    between atoms: _497  and  _498
REMARK  193  A    between atoms: _498  and  _499
REMARK  194  A    between atoms: _502  and  _504
REMARK  195  A    between atoms: _504  and  _505
REMARK  196  A    between atoms: _504  and  _507
REMARK  197  A    between atoms: _507  and  _508
REMARK  198  A    between atoms: _511  and  _513
REMARK  199  A    between atoms: _513  and  _514
REMARK  200  A    between atoms: _513  and  _516
REMARK  201  A    between atoms: _516  and  _517
REMARK  202  A    between atoms: _523  and  _525
REMARK  203  A    between atoms: _525  and  _526
REMARK  204  A    between atoms: _525  and  _528
REMARK  205  A    between atoms: _528  and  _529
REMARK  206  A    between atoms: _534  and  _536
REMARK  207  A    between atoms: _536  and  _537
REMARK  208  A    between atoms: _536  and  _539
REMARK  209  A    between atoms: _539  and  _540
REMARK  210  A    between atoms: _545  and  _547
REMARK  211  A    between atoms: _547  and  _548
REMARK  212  A    between atoms: _547  and  _550
REMARK  213  A    between atoms: _550  and  _551
REMARK  214  A    between atoms: _554  and  _556
REMARK  215  A    between atoms: _556  and  _557
REMARK  216  A    between atoms: _556  and  _559
REMARK  217  A    between atoms: _559  and  _560
REMARK  218  A    between atoms: _565  and  _567
REMARK  219  A    between atoms: _567  and  _568
REMARK  220  A    between atoms: _567  and  _570
REMARK  221  A    between atoms: _570  and  _571
REMARK  222  A    between atoms: _571  and  _572
REMARK  223  A    between atoms: _572  and  _573
REMARK  224  A    between atoms: _582  and  _584
REMARK  225  A    between atoms: _584  and  _585
REMARK  226  A    between atoms: _587  and  _589
REMARK  227  A    between atoms: _589  and  _590
REMARK  228  A    between atoms: _589  and  _592
REMARK  229  A    between atoms: _592  and  _593
REMARK  230  A    between atoms: _598  and  _600
REMARK  231  A    between atoms: _600  and  _601
REMARK  232  A    between atoms: _603  and  _605
REMARK  233  A    between atoms: _605  and  _606
REMARK  234  A    between atoms: _609  and  _611
REMARK  235  A    between atoms: _611  and  _612
REMARK  236  A    between atoms: _614  and  _616
REMARK  237  A    between atoms: _616  and  _617
REMARK  238  A    between atoms: _619  and  _621
REMARK  239  A    between atoms: _621  and  _622
REMARK  240  A    between atoms: _621  and  _624
REMARK  241  A    between atoms: _624  and  _625
REMARK  242  A    between atoms: _625  and  _626
REMARK  243  A    between atoms: _626  and  _627
REMARK  244  A    between atoms: _636  and  _638
REMARK  245  A    between atoms: _638  and  _639
REMARK  246  A    between atoms: _638  and  _641
REMARK  247  A    between atoms: _641  and  _642
REMARK  248  A    between atoms: _645  and  _647
REMARK  249  A    between atoms: _647  and  _648
REMARK  250  A    between atoms: _647  and  _650
REMARK  251  A    between atoms: _650  and  _651
REMARK                            x       y       z     vdW  Elec       q    Type
REMARK                         _______ _______ _______ _____ _____    ______ ____
ROOT
ATOM      1  O   HOH     1      14.902  24.809  49.674  0.00  0.00    +0.000 OA
ENDROOT
TORSDOF 0
REMARK  Name = ../refined-set-2016/1xd0/1xd0_pocket.pdb
REMARK  251 active torsions:
REMARK  status: ('A' for Active; 'I' for Inactive)
REMARK    1  A    between atoms: _1  and  _3
REMARK    2  A    between atoms: _3  and  _4
REMARK    3  A    between atoms: _3  and  _6
REMARK    4  A    between atoms: _6  and  _7
REMARK    5  A    between atoms: _13  and  _15
REMARK    6  A    between atoms: _15  and  _16
REMARK    7  A    between atoms: _15  and  _18
REMARK    8  A    between atoms: _18  and  _19
REMARK    9  A    between atoms: _19  and  _20
REMARK   10  A    between atoms: _26  and  _27
REMARK   11  A    between atoms: _32  and  _34
REMARK   12  A    between atoms: _34  and  _35
REMARK   13  A    between atoms: _34  and  _37
REMARK   14  A    between atoms: _37  and  _38
REMARK   15  A    between atoms: _43  and  _45
REMARK   16  A    between atoms: _45  and  _46
REMARK   17  A    between atoms: _45  and  _48
REMARK   18  A    between atoms: _51  and  _53
REMARK   19  A    between atoms: _53  and  _54
REMARK   20  A    between atoms: _53  and  _56
REMARK   21  A    between atoms: _56  and  _57
REMARK   22  A    between atoms: _61  and  _62
REMARK   23  A    between atoms: _68  and  _69
REMARK   24  A    between atoms: _74  and  _76
REMARK   25  A    between atoms: _76  and  _77
REMARK   26  A    between atoms: _76  and  _79
REMARK   27  A    between atoms: _79  and  _80
REMARK   28  A    between atoms: _90  and  _92
REMARK   29  A    between atoms: _92  and  _93
REMARK   30  A    between atoms: _92  and  _95
REMARK   31  A    between atoms: _95  and  _96
REMARK   32  A    between atoms: _106  and  _108
REMARK   33  A    between atoms: _108  and  _109
REMARK   34  A    between atoms: _108  and  _111
REMARK   35  A    between atoms: _111  and  _112
REMARK   36  A    between atoms: _112  and  _113
REMARK   37  A    between atoms: _116  and  _118
REMARK   38  A    between atoms: _118  and  _119
REMARK   39  A    between atoms: _118  and  _121
REMARK   40  A    between atoms: _121  and  _122
REMARK   41  A    between atoms: _122  and  _123
REMARK   42  A    between atoms: _123  and  _124
REMARK   43  A    between atoms: _133  and  _135
REMARK   44  A    between atoms: _135  and  _136
REMARK   45  A    between atoms: _135  and  _138
REMARK   46  A    between atoms: _138  and  _139
REMARK   47  A    between atoms: _144  and  _145
REMARK   48  A    between atoms: _147  and  _149
REMARK   49  A    between atoms: _149  and  _150
REMARK   50  A    between atoms: _149  and  _152
REMARK   51  A    between atoms: _152  and  _153
REMARK   52  A    between atoms: _153  and  _154
REMARK   53  A    between atoms: _160  and  _161
REMARK   54  A    between atoms: _166  and  _168
REMARK   55  A    between atoms: _168  and  _169
REMARK   56  A    between atoms: _168  and  _171
REMARK   57  A    between atoms: _171  and  _172
REMARK   58  A    between atoms: _175  and  _177
REMARK   59  A    between atoms: _177  and  _178
REMARK   60  A    between atoms: _181  and  _183
REMARK   61  A    between atoms: _183  and  _184
REMARK   62  A    between atoms: _183  and  _186
REMARK   63  A    between atoms: _189  and  _191
REMARK   64  A    between atoms: _191  and  _192
REMARK   65  A    between atoms: _191  and  _194
REMARK   66  A    between atoms: _194  and  _195
REMARK   67  A    between atoms: _198  and  _200
REMARK   68  A    between atoms: _200  and  _201
REMARK   69  A    between atoms: _200  and  _203
REMARK   70  A    between atoms: _203  and  _204
REMARK   71  A    between atoms: _209  and  _211
REMARK   72  A    between atoms: _211  and  _212
REMARK   73  A    between atoms: _211  and  _214
REMARK   74  A    between atoms: _214  and  _215
REMARK   75  A    between atoms: _220  and  _222
REMARK   76  A    between atoms: _222  and  _223
REMARK   77  A    between atoms: _222  and  _225
REMARK   78  A    between atoms: _225  and  _226
REMARK   79  A    between atoms: _226  and  _227
REMARK   80  A    between atoms: _229  and  _231
REMARK   81  A    between atoms: _231  and  _232
REMARK   82  A    between atoms: _231  and  _234
REMARK   83  A    between atoms: _236  and  _238
REMARK   84  A    between atoms: _238  and  _239
REMARK   85  A    between atoms: _241  and  _243
REMARK   86  A    between atoms: _243  and  _244
REMARK   87  A    between atoms: _243  and  _246
REMARK   88  A    between atoms: _246  and  _247
REMARK   89  A    between atoms: _252  and  _254
REMARK   90  A    between atoms: _254  and  _255
REMARK   91  A    between atoms: _258  and  _260
REMARK   92  A    between atoms: _260  and  _261
REMARK   93  A    between atoms: _260  and  _263
REMARK   94  A    between atoms: _266  and  _268
REMARK   95  A    between atoms: _268  and  _269
REMARK   96  A    between atoms: _268  and  _271
REMARK   97  A    between atoms: _271  and  _272
REMARK   98  A    between atoms: _275  and  _277
REMARK   99  A    between atoms: _277  and  _278
REMARK  100  A    between atoms: _277  and  _280
REMARK  101  A    between atoms: _280  and  _281
REMARK  102  A    between atoms: _284  and  _286
REMARK  103  A    between atoms: _286  and  _287
REMARK  104  A    between atoms: _286  and  _289
REMARK  105  A    between atoms: _289  and  _290
REMARK  106  A    between atoms: _295  and  _296
REMARK  107  A    between atoms: _298  and  _300
REMARK  108  A    between atoms: _300  and  _301
REMARK  109  A    between atoms: _300  and  _303
REMARK  110  A    between atoms: _306  and  _308
REMARK  111  A    between atoms: _308  and  _309
REMARK  112  A    between atoms: _308  and  _311
REMARK  113  A    between atoms: _311  and  _312
REMARK  114  A    between atoms: _312  and  _313
REMARK  115  A    between atoms: _313  and  _314
REMARK  116  A    between atoms: _323  and  _325
REMARK  117  A    between atoms: _325  and  _326
REMARK  118  A    between atoms: _325  and  _328
REMARK  119  A    between atoms: _328  and  _329
REMARK  120  A    between atoms: _332  and  _334
REMARK  121  A    between atoms: _334  and  _335
REMARK  122  A    between atoms: _334  and  _337
REMARK  123  A    between atoms: _337  and  _338
REMARK  124  A    between atoms: _341  and  _343
REMARK  125  A    between atoms: _343  and  _344
REMARK  126  A    between atoms: _346  and  _348
REMARK  127  A    between atoms: _348  and  _349
REMARK  128  A    between atoms: _348  and  _351
REMARK  129  A    between atoms: _351  and  _352
REMARK  130  A    between atoms: _355  and  _357
REMARK  131  A    between atoms: _357  and  _358
REMARK  132  A    between atoms: _357  and  _360
REMARK  133  A    between atoms: _360  and  _361
REMARK  134  A    between atoms: _364  and  _366
REMARK  135  A    between atoms: _366  and  _367
REMARK  136  A    between atoms: _366  and  _369
REMARK  137  A    between atoms: _369  and  _370
REMARK  138  A    between atoms: _370  and  _371
REMARK  139  A    between atoms: _371  and  _372
REMARK  140  A    between atoms: _381  and  _383
REMARK  141  A    between atoms: _383  and  _384
REMARK  142  A    between atoms: _383  and  _386
REMARK  143  A    between atoms: _386  and  _387
REMARK  144  A    between atoms: _390  and  _392
REMARK  145  A    between atoms: _392  and  _393
REMARK  146  A    between atoms: _392  and  _395
REMARK  147  A    between atoms: _395  and  _396
REMARK  148  A    between atoms: _399  and  _401
REMARK  149  A    between atoms: _401  and  _402
REMARK  150  A    between atoms: _405  and  _407
REMARK  151  A    between atoms: _407  and  _408
REMARK  152  A    between atoms: _407  and  _410
REMARK  153  A    between atoms: _410  and  _411
REMARK  154  A    between atoms: _413  and  _415
REMARK  155  A    between atoms: _415  and  _416
REMARK  156  A    between atoms: _415  and  _418
REMARK  157  A    between atoms: _418  and  _419
REMARK  158  A    between atoms: _419  and  _420
REMARK  159  A    between atoms: _420  and  _421
REMARK  160  A    between atoms: _421  and  _422
REMARK  161  A    between atoms: _426  and  _428
REMARK  162  A    between atoms: _428  and  _429
REMARK  163  A    between atoms: _428  and  _431
REMARK  164  A    between atoms: _431  and  _432
REMARK  165  A    between atoms: _437  and  _439
REMARK  166  A    between atoms: _439  and  _440
REMARK  167  A    between atoms: _439  and  _442
REMARK  168  A    between atoms: _442  and  _443
REMARK  169  A    between atoms: _443  and  _444
REMARK  170  A    between atoms: _447  and  _449
REMARK  171  A    between atoms: _449  and  _450
REMARK  172  A    between atoms: _449  and  _452
REMARK  173  A    between atoms: _455  and  _457
REMARK  174  A    between atoms: _457  and  _458
REMARK  175  A    between atoms: _457  and  _460
REMARK  176  A    between atoms: _460  and  _461
REMARK  177  A    between atoms: _464  and  _466
REMARK  178  A    between atoms: _466  and  _467
REMARK  179  A    between atoms: _466  and  _469
REMARK  180  A    between atoms: _469  and  _470
REMARK  181  A    between atoms: _473  and  _475
REMARK  182  A    between atoms: _475  and  _476
REMARK  183  A    between atoms: _475  and  _478
REMARK  184  A    between atoms: _478  and  _479
REMARK  185  A    between atoms: _482  and  _484
REMARK  186  A    between atoms: _484  and  _485
REMARK  187  A    between atoms: _487  and  _489
REMARK  188  A    between atoms: _489  and  _490
REMARK  189  A    between atoms: _492  and  _494
REMARK  190  A    between atoms: _494  and  _495
REMARK  191  A    between atoms: _494  and  _497
REMARK  192  A    between atoms: _497  and  _498
REMARK  193  A    between atoms: _498  and  _499
REMARK  194  A    between atoms: _502  and  _504
REMARK  195  A    between atoms: _504  and  _505
REMARK  196  A    between atoms: _504  and  _507
REMARK  197  A    between atoms: _507  and  _508
REMARK  198  A    between atoms: _511  and  _513
REMARK  199  A    between atoms: _513  and  _514
REMARK  200  A    between atoms: _513  and  _516
REMARK  201  A    between atoms: _516  and  _517
REMARK  202  A    between atoms: _523  and  _525
REMARK  203  A    between atoms: _525  and  _526
REMARK  204  A    between atoms: _525  and  _528
REMARK  205  A    between atoms: _528  and  _529
REMARK  206  A    between atoms: _534  and  _536
REMARK  207  A    between atoms: _536  and  _537
REMARK  208  A    between atoms: _536  and  _539
REMARK  209  A    between atoms: _539  and  _540
REMARK  210  A    between atoms: _545  and  _547
REMARK  211  A    between atoms: _547  and  _548
REMARK  212  A    between atoms: _547  and  _550
REMARK  213  A    between atoms: _550  and  _551
REMARK  214  A    between atoms: _554  and  _556
REMARK  215  A    between atoms: _556  and  _557
REMARK  216  A    between atoms: _556  and  _559
REMARK  217  A    between atoms: _559  and  _560
REMARK  218  A    between atoms: _565  and  _567
REMARK  219  A    between atoms: _567  and  _568
REMARK  220  A    between atoms: _567  and  _570
REMARK  221  A    between atoms: _570  and  _571
REMARK  222  A    between atoms: _571  and  _572
REMARK  223  A    between atoms: _572  and  _573
REMARK  224  A    between atoms: _582  and  _584
REMARK  225  A    between atoms: _584  and  _585
REMARK  226  A    between atoms: _587  and  _589
REMARK  227  A    between atoms: _589  and  _590
REMARK  228  A    between atoms: _589  and  _592
REMARK  229  A    between atoms: _592  and  _593
REMARK  230  A    between atoms: _598  and  _600
REMARK  231  A    between atoms: _600  and  _601
REMARK  232  A    between atoms: _603  and  _605
REMARK  233  A    between atoms: _605  and  _606
REMARK  234  A    between atoms: _609  and  _611
REMARK  235  A    between atoms: _611  and  _612
REMARK  236  A    between atoms: _614  and  _616
REMARK  237  A    between atoms: _616  and  _617
REMARK  238  A    between atoms: _619  and  _621
REMARK  239  A    between atoms: _621  and  _622
REMARK  240  A    between atoms: _621  and  _624
REMARK  241  A    between atoms: _624  and  _625
REMARK  242  A    between atoms: _625  and  _626
REMARK  243  A    between atoms: _626  and  _627
REMARK  244  A    between atoms: _636  and  _638
REMARK  245  A    between atoms: _638  and  _639
REMARK  246  A    between atoms: _638  and  _641
REMARK  247  A    between atoms: _641  and  _642
REMARK  248  A    between atoms: _645  and  _647
REMARK  249  A    between atoms: _647  and  _648
REMARK  250  A    between atoms: _647  and  _650
REMARK  251  A    between atoms: _650  and  _651
REMARK                            x       y       z     vdW  Elec       q    Type
REMARK                         _______ _______ _______ _____ _____    ______ ____
ROOT
ATOM      1  O   HOH     1      13.309  13.653  49.685  0.00  0.00    +0.000 OA
ENDROOT
TORSDOF 0
REMARK  Name = ../refined-set-2016/1xd0/1xd0_pocket.pdb
REMARK  251 active torsions:
REMARK  status: ('A' for Active; 'I' for Inactive)
REMARK    1  A    between atoms: _1  and  _3
REMARK    2  A    between atoms: _3  and  _4
REMARK    3  A    between atoms: _3  and  _6
REMARK    4  A    between atoms: _6  and  _7
REMARK    5  A    between atoms: _13  and  _15
REMARK    6  A    between atoms: _15  and  _16
REMARK    7  A    between atoms: _15  and  _18
REMARK    8  A    between atoms: _18  and  _19
REMARK    9  A    between atoms: _19  and  _20
REMARK   10  A    between atoms: _26  and  _27
REMARK   11  A    between atoms: _32  and  _34
REMARK   12  A    between atoms: _34  and  _35
REMARK   13  A    between atoms: _34  and  _37
REMARK   14  A    between atoms: _37  and  _38
REMARK   15  A    between atoms: _43  and  _45
REMARK   16  A    between atoms: _45  and  _46
REMARK   17  A    between atoms: _45  and  _48
REMARK   18  A    between atoms: _51  and  _53
REMARK   19  A    between atoms: _53  and  _54
REMARK   20  A    between atoms: _53  and  _56
REMARK   21  A    between atoms: _56  and  _57
REMARK   22  A    between atoms: _61  and  _62
REMARK   23  A    between atoms: _68  and  _69
REMARK   24  A    between atoms: _74  and  _76
REMARK   25  A    between atoms: _76  and  _77
REMARK   26  A    between atoms: _76  and  _79
REMARK   27  A    between atoms: _79  and  _80
REMARK   28  A    between atoms: _90  and  _92
REMARK   29  A    between atoms: _92  and  _93
REMARK   30  A    between atoms: _92  and  _95
REMARK   31  A    between atoms: _95  and  _96
REMARK   32  A    between atoms: _106  and  _108
REMARK   33  A    between atoms: _108  and  _109
REMARK   34  A    between atoms: _108  and  _111
REMARK   35  A    between atoms: _111  and  _112
REMARK   36  A    between atoms: _112  and  _113
REMARK   37  A    between atoms: _116  and  _118
REMARK   38  A    between atoms: _118  and  _119
REMARK   39  A    between atoms: _118  and  _121
REMARK   40  A    between atoms: _121  and  _122
REMARK   41  A    between atoms: _122  and  _123
REMARK   42  A    between atoms: _123  and  _124
REMARK   43  A    between atoms: _133  and  _135
REMARK   44  A    between atoms: _135  and  _136
REMARK   45  A    between atoms: _135  and  _138
REMARK   46  A    between atoms: _138  and  _139
REMARK   47  A    between atoms: _144  and  _145
REMARK   48  A    between atoms: _147  and  _149
REMARK   49  A    between atoms: _149  and  _150
REMARK   50  A    between atoms: _149  and  _152
REMARK   51  A    between atoms: _152  and  _153
REMARK   52  A    between atoms: _153  and  _154
REMARK   53  A    between atoms: _160  and  _161
REMARK   54  A    between atoms: _166  and  _168
REMARK   55  A    between atoms: _168  and  _169
REMARK   56  A    between atoms: _168  and  _171
REMARK   57  A    between atoms: _171  and  _172
REMARK   58  A    between atoms: _175  and  _177
REMARK   59  A    between atoms: _177  and  _178
REMARK   60  A    between atoms: _181  and  _183
REMARK   61  A    between atoms: _183  and  _184
REMARK   62  A    between atoms: _183  and  _186
REMARK   63  A    between atoms: _189  and  _191
REMARK   64  A    between atoms: _191  and  _192
REMARK   65  A    between atoms: _191  and  _194
REMARK   66  A    between atoms: _194  and  _195
REMARK   67  A    between atoms: _198  and  _200
REMARK   68  A    between atoms: _200  and  _201
REMARK   69  A    between atoms: _200  and  _203
REMARK   70  A    between atoms: _203  and  _204
REMARK   71  A    between atoms: _209  and  _211
REMARK   72  A    between atoms: _211  and  _212
REMARK   73  A    between atoms: _211  and  _214
REMARK   74  A    between atoms: _214  and  _215
REMARK   75  A    between atoms: _220  and  _222
REMARK   76  A    between atoms: _222  and  _223
REMARK   77  A    between atoms: _222  and  _225
REMARK   78  A    between atoms: _225  and  _226
REMARK   79  A    between atoms: _226  and  _227
REMARK   80  A    between atoms: _229  and  _231
REMARK   81  A    between atoms: _231  and  _232
REMARK   82  A    between atoms: _231  and  _234
REMARK   83  A    between atoms: _236  and  _238
REMARK   84  A    between atoms: _238  and  _239
REMARK   85  A    between atoms: _241  and  _243
REMARK   86  A    between atoms: _243  and  _244
REMARK   87  A    between atoms: _243  and  _246
REMARK   88  A    between atoms: _246  and  _247
REMARK   89  A    between atoms: _252  and  _254
REMARK   90  A    between atoms: _254  and  _255
REMARK   91  A    between atoms: _258  and  _260
REMARK   92  A    between atoms: _260  and  _261
REMARK   93  A    between atoms: _260  and  _263
REMARK   94  A    between atoms: _266  and  _268
REMARK   95  A    between atoms: _268  and  _269
REMARK   96  A    between atoms: _268  and  _271
REMARK   97  A    between atoms: _271  and  _272
REMARK   98  A    between atoms: _275  and  _277
REMARK   99  A    between atoms: _277  and  _278
REMARK  100  A    between atoms: _277  and  _280
REMARK  101  A    between atoms: _280  and  _281
REMARK  102  A    between atoms: _284  and  _286
REMARK  103  A    between atoms: _286  and  _287
REMARK  104  A    between atoms: _286  and  _289
REMARK  105  A    between atoms: _289  and  _290
REMARK  106  A    between atoms: _295  and  _296
REMARK  107  A    between atoms: _298  and  _300
REMARK  108  A    between atoms: _300  and  _301
REMARK  109  A    between atoms: _300  and  _303
REMARK  110  A    between atoms: _306  and  _308
REMARK  111  A    between atoms: _308  and  _309
REMARK  112  A    between atoms: _308  and  _311
REMARK  113  A    between atoms: _311  and  _312
REMARK  114  A    between atoms: _312  and  _313
REMARK  115  A    between atoms: _313  and  _314
REMARK  116  A    between atoms: _323  and  _325
REMARK  117  A    between atoms: _325  and  _326
REMARK  118  A    between atoms: _325  and  _328
REMARK  119  A    between atoms: _328  and  _329
REMARK  120  A    between atoms: _332  and  _334
REMARK  121  A    between atoms: _334  and  _335
REMARK  122  A    between atoms: _334  and  _337
REMARK  123  A    between atoms: _337  and  _338
REMARK  124  A    between atoms: _341  and  _343
REMARK  125  A    between atoms: _343  and  _344
REMARK  126  A    between atoms: _346  and  _348
REMARK  127  A    between atoms: _348  and  _349
REMARK  128  A    between atoms: _348  and  _351
REMARK  129  A    between atoms: _351  and  _352
REMARK  130  A    between atoms: _355  and  _357
REMARK  131  A    between atoms: _357  and  _358
REMARK  132  A    between atoms: _357  and  _360
REMARK  133  A    between atoms: _360  and  _361
REMARK  134  A    between atoms: _364  and  _366
REMARK  135  A    between atoms: _366  and  _367
REMARK  136  A    between atoms: _366  and  _369
REMARK  137  A    between atoms: _369  and  _370
REMARK  138  A    between atoms: _370  and  _371
REMARK  139  A    between atoms: _371  and  _372
REMARK  140  A    between atoms: _381  and  _383
REMARK  141  A    between atoms: _383  and  _384
REMARK  142  A    between atoms: _383  and  _386
REMARK  143  A    between atoms: _386  and  _387
REMARK  144  A    between atoms: _390  and  _392
REMARK  145  A    between atoms: _392  and  _393
REMARK  146  A    between atoms: _392  and  _395
REMARK  147  A    between atoms: _395  and  _396
REMARK  148  A    between atoms: _399  and  _401
REMARK  149  A    between atoms: _401  and  _402
REMARK  150  A    between atoms: _405  and  _407
REMARK  151  A    between atoms: _407  and  _408
REMARK  152  A    between atoms: _407  and  _410
REMARK  153  A    between atoms: _410  and  _411
REMARK  154  A    between atoms: _413  and  _415
REMARK  155  A    between atoms: _415  and  _416
REMARK  156  A    between atoms: _415  and  _418
REMARK  157  A    between atoms: _418  and  _419
REMARK  158  A    between atoms: _419  and  _420
REMARK  159  A    between atoms: _420  and  _421
REMARK  160  A    between atoms: _421  and  _422
REMARK  161  A    between atoms: _426  and  _428
REMARK  162  A    between atoms: _428  and  _429
REMARK  163  A    between atoms: _428  and  _431
REMARK  164  A    between atoms: _431  and  _432
REMARK  165  A    between atoms: _437  and  _439
REMARK  166  A    between atoms: _439  and  _440
REMARK  167  A    between atoms: _439  and  _442
REMARK  168  A    between atoms: _442  and  _443
REMARK  169  A    between atoms: _443  and  _444
REMARK  170  A    between atoms: _447  and  _449
REMARK  171  A    between atoms: _449  and  _450
REMARK  172  A    between atoms: _449  and  _452
REMARK  173  A    between atoms: _455  and  _457
REMARK  174  A    between atoms: _457  and  _458
REMARK  175  A    between atoms: _457  and  _460
REMARK  176  A    between atoms: _460  and  _461
REMARK  177  A    between atoms: _464  and  _466
REMARK  178  A    between atoms: _466  and  _467
REMARK  179  A    between atoms: _466  and  _469
REMARK  180  A    between atoms: _469  and  _470
REMARK  181  A    between atoms: _473  and  _475
REMARK  182  A    between atoms: _475  and  _476
REMARK  183  A    between atoms: _475  and  _478
REMARK  184  A    between atoms: _478  and  _479
REMARK  185  A    between atoms: _482  and  _484
REMARK  186  A    between atoms: _484  and  _485
REMARK  187  A    between atoms: _487  and  _489
REMARK  188  A    between atoms: _489  and  _490
REMARK  189  A    between atoms: _492  and  _494
REMARK  190  A    between atoms: _494  and  _495
REMARK  191  A    between atoms: _494  and  _497
REMARK  192  A    between atoms: _497  and  _498
REMARK  193  A    between atoms: _498  and  _499
REMARK  194  A    between atoms: _502  and  _504
REMARK  195  A    between atoms: _504  and  _505
REMARK  196  A    between atoms: _504  and  _507
REMARK  197  A    between atoms: _507  and  _508
REMARK  198  A    between atoms: _511  and  _513
REMARK  199  A    between atoms: _513  and  _514
REMARK  200  A    between atoms: _513  and  _516
REMARK  201  A    between atoms: _516  and  _517
REMARK  202  A    between atoms: _523  and  _525
REMARK  203  A    between atoms: _525  and  _526
REMARK  204  A    between atoms: _525  and  _528
REMARK  205  A    between atoms: _528  and  _529
REMARK  206  A    between atoms: _534  and  _536
REMARK  207  A    between atoms: _536  and  _537
REMARK  208  A    between atoms: _536  and  _539
REMARK  209  A    between atoms: _539  and  _540
REMARK  210  A    between atoms: _545  and  _547
REMARK  211  A    between atoms: _547  and  _548
REMARK  212  A    between atoms: _547  and  _550
REMARK  213  A    between atoms: _550  and  _551
REMARK  214  A    between atoms: _554  and  _556
REMARK  215  A    between atoms: _556  and  _557
REMARK  216  A    between atoms: _556  and  _559
REMARK  217  A    between atoms: _559  and  _560
REMARK  218  A    between atoms: _565  and  _567
REMARK  219  A    between atoms: _567  and  _568
REMARK  220  A    between atoms: _567  and  _570
REMARK  221  A    between atoms: _570  and  _571
REMARK  222  A    between atoms: _571  and  _572
REMARK  223  A    between atoms: _572  and  _573
REMARK  224  A    between atoms: _582  and  _584
REMARK  225  A    between atoms: _584  and  _585
REMARK  226  A    between atoms: _587  and  _589
REMARK  227  A    between atoms: _589  and  _590
REMARK  228  A    between atoms: _589  and  _592
REMARK  229  A    between atoms: _592  and  _593
REMARK  230  A    between atoms: _598  and  _600
REMARK  231  A    between atoms: _600  and  _601
REMARK  232  A    between atoms: _603  and  _605
REMARK  233  A    between atoms: _605  and  _606
REMARK  234  A    between atoms: _609  and  _611
REMARK  235  A    between atoms: _611  and  _612
REMARK  236  A    between atoms: _614  and  _616
REMARK  237  A    between atoms: _616  and  _617
REMARK  238  A    between atoms: _619  and  _621
REMARK  239  A    between atoms: _621  and  _622
REMARK  240  A    between atoms: _621  and  _624
REMARK  241  A    between atoms: _624  and  _625
REMARK  242  A    between atoms: _625  and  _626
REMARK  243  A    between atoms: _626  and  _627
REMARK  244  A    between atoms: _636  and  _638
REMARK  245  A    between atoms: _638  and  _639
REMARK  246  A    between atoms: _638  and  _641
REMARK  247  A    between atoms: _641  and  _642
REMARK  248  A    between atoms: _645  and  _647
REMARK  249  A    between atoms: _647  and  _648
REMARK  250  A    between atoms: _647  and  _650
REMARK  251  A    between atoms: _650  and  _651
REMARK                            x       y       z     vdW  Elec       q    Type
REMARK                         _______ _______ _______ _____ _____    ______ ____
ROOT
ATOM      1  O   HOH     1      18.177  23.956  43.715  0.00  0.00    +0.000 OA
ENDROOT
TORSDOF 0
REMARK  Name = ../refined-set-2016/1xd0/1xd0_pocket.pdb
REMARK  251 active torsions:
REMARK  status: ('A' for Active; 'I' for Inactive)
REMARK    1  A    between atoms: _1  and  _3
REMARK    2  A    between atoms: _3  and  _4
REMARK    3  A    between atoms: _3  and  _6
REMARK    4  A    between atoms: _6  and  _7
REMARK    5  A    between atoms: _13  and  _15
REMARK    6  A    between atoms: _15  and  _16
REMARK    7  A    between atoms: _15  and  _18
REMARK    8  A    between atoms: _18  and  _19
REMARK    9  A    between atoms: _19  and  _20
REMARK   10  A    between atoms: _26  and  _27
REMARK   11  A    between atoms: _32  and  _34
REMARK   12  A    between atoms: _34  and  _35
REMARK   13  A    between atoms: _34  and  _37
REMARK   14  A    between atoms: _37  and  _38
REMARK   15  A    between atoms: _43  and  _45
REMARK   16  A    between atoms: _45  and  _46
REMARK   17  A    between atoms: _45  and  _48
REMARK   18  A    between atoms: _51  and  _53
REMARK   19  A    between atoms: _53  and  _54
REMARK   20  A    between atoms: _53  and  _56
REMARK   21  A    between atoms: _56  and  _57
REMARK   22  A    between atoms: _61  and  _62
REMARK   23  A    between atoms: _68  and  _69
REMARK   24  A    between atoms: _74  and  _76
REMARK   25  A    between atoms: _76  and  _77
REMARK   26  A    between atoms: _76  and  _79
REMARK   27  A    between atoms: _79  and  _80
REMARK   28  A    between atoms: _90  and  _92
REMARK   29  A    between atoms: _92  and  _93
REMARK   30  A    between atoms: _92  and  _95
REMARK   31  A    between atoms: _95  and  _96
REMARK   32  A    between atoms: _106  and  _108
REMARK   33  A    between atoms: _108  and  _109
REMARK   34  A    between atoms: _108  and  _111
REMARK   35  A    between atoms: _111  and  _112
REMARK   36  A    between atoms: _112  and  _113
REMARK   37  A    between atoms: _116  and  _118
REMARK   38  A    between atoms: _118  and  _119
REMARK   39  A    between atoms: _118  and  _121
REMARK   40  A    between atoms: _121  and  _122
REMARK   41  A    between atoms: _122  and  _123
REMARK   42  A    between atoms: _123  and  _124
REMARK   43  A    between atoms: _133  and  _135
REMARK   44  A    between atoms: _135  and  _136
REMARK   45  A    between atoms: _135  and  _138
REMARK   46  A    between atoms: _138  and  _139
REMARK   47  A    between atoms: _144  and  _145
REMARK   48  A    between atoms: _147  and  _149
REMARK   49  A    between atoms: _149  and  _150
REMARK   50  A    between atoms: _149  and  _152
REMARK   51  A    between atoms: _152  and  _153
REMARK   52  A    between atoms: _153  and  _154
REMARK   53  A    between atoms: _160  and  _161
REMARK   54  A    between atoms: _166  and  _168
REMARK   55  A    between atoms: _168  and  _169
REMARK   56  A    between atoms: _168  and  _171
REMARK   57  A    between atoms: _171  and  _172
REMARK   58  A    between atoms: _175  and  _177
REMARK   59  A    between atoms: _177  and  _178
REMARK   60  A    between atoms: _181  and  _183
REMARK   61  A    between atoms: _183  and  _184
REMARK   62  A    between atoms: _183  and  _186
REMARK   63  A    between atoms: _189  and  _191
REMARK   64  A    between atoms: _191  and  _192
REMARK   65  A    between atoms: _191  and  _194
REMARK   66  A    between atoms: _194  and  _195
REMARK   67  A    between atoms: _198  and  _200
REMARK   68  A    between atoms: _200  and  _201
REMARK   69  A    between atoms: _200  and  _203
REMARK   70  A    between atoms: _203  and  _204
REMARK   71  A    between atoms: _209  and  _211
REMARK   72  A    between atoms: _211  and  _212
REMARK   73  A    between atoms: _211  and  _214
REMARK   74  A    between atoms: _214  and  _215
REMARK   75  A    between atoms: _220  and  _222
REMARK   76  A    between atoms: _222  and  _223
REMARK   77  A    between atoms: _222  and  _225
REMARK   78  A    between atoms: _225  and  _226
REMARK   79  A    between atoms: _226  and  _227
REMARK   80  A    between atoms: _229  and  _231
REMARK   81  A    between atoms: _231  and  _232
REMARK   82  A    between atoms: _231  and  _234
REMARK   83  A    between atoms: _236  and  _238
REMARK   84  A    between atoms: _238  and  _239
REMARK   85  A    between atoms: _241  and  _243
REMARK   86  A    between atoms: _243  and  _244
REMARK   87  A    between atoms: _243  and  _246
REMARK   88  A    between atoms: _246  and  _247
REMARK   89  A    between atoms: _252  and  _254
REMARK   90  A    between atoms: _254  and  _255
REMARK   91  A    between atoms: _258  and  _260
REMARK   92  A    between atoms: _260  and  _261
REMARK   93  A    between atoms: _260  and  _263
REMARK   94  A    between atoms: _266  and  _268
REMARK   95  A    between atoms: _268  and  _269
REMARK   96  A    between atoms: _268  and  _271
REMARK   97  A    between atoms: _271  and  _272
REMARK   98  A    between atoms: _275  and  _277
REMARK   99  A    between atoms: _277  and  _278
REMARK  100  A    between atoms: _277  and  _280
REMARK  101  A    between atoms: _280  and  _281
REMARK  102  A    between atoms: _284  and  _286
REMARK  103  A    between atoms: _286  and  _287
REMARK  104  A    between atoms: _286  and  _289
REMARK  105  A    between atoms: _289  and  _290
REMARK  106  A    between atoms: _295  and  _296
REMARK  107  A    between atoms: _298  and  _300
REMARK  108  A    between atoms: _300  and  _301
REMARK  109  A    between atoms: _300  and  _303
REMARK  110  A    between atoms: _306  and  _308
REMARK  111  A    between atoms: _308  and  _309
REMARK  112  A    between atoms: _308  and  _311
REMARK  113  A    between atoms: _311  and  _312
REMARK  114  A    between atoms: _312  and  _313
REMARK  115  A    between atoms: _313  and  _314
REMARK  116  A    between atoms: _323  and  _325
REMARK  117  A    between atoms: _325  and  _326
REMARK  118  A    between atoms: _325  and  _328
REMARK  119  A    between atoms: _328  and  _329
REMARK  120  A    between atoms: _332  and  _334
REMARK  121  A    between atoms: _334  and  _335
REMARK  122  A    between atoms: _334  and  _337
REMARK  123  A    between atoms: _337  and  _338
REMARK  124  A    between atoms: _341  and  _343
REMARK  125  A    between atoms: _343  and  _344
REMARK  126  A    between atoms: _346  and  _348
REMARK  127  A    between atoms: _348  and  _349
REMARK  128  A    between atoms: _348  and  _351
REMARK  129  A    between atoms: _351  and  _352
REMARK  130  A    between atoms: _355  and  _357
REMARK  131  A    between atoms: _357  and  _358
REMARK  132  A    between atoms: _357  and  _360
REMARK  133  A    between atoms: _360  and  _361
REMARK  134  A    between atoms: _364  and  _366
REMARK  135  A    between atoms: _366  and  _367
REMARK  136  A    between atoms: _366  and  _369
REMARK  137  A    between atoms: _369  and  _370
REMARK  138  A    between atoms: _370  and  _371
REMARK  139  A    between atoms: _371  and  _372
REMARK  140  A    between atoms: _381  and  _383
REMARK  141  A    between atoms: _383  and  _384
REMARK  142  A    between atoms: _383  and  _386
REMARK  143  A    between atoms: _386  and  _387
REMARK  144  A    between atoms: _390  and  _392
REMARK  145  A    between atoms: _392  and  _393
REMARK  146  A    between atoms: _392  and  _395
REMARK  147  A    between atoms: _395  and  _396
REMARK  148  A    between atoms: _399  and  _401
REMARK  149  A    between atoms: _401  and  _402
REMARK  150  A    between atoms: _405  and  _407
REMARK  151  A    between atoms: _407  and  _408
REMARK  152  A    between atoms: _407  and  _410
REMARK  153  A    between atoms: _410  and  _411
REMARK  154  A    between atoms: _413  and  _415
REMARK  155  A    between atoms: _415  and  _416
REMARK  156  A    between atoms: _415  and  _418
REMARK  157  A    between atoms: _418  and  _419
REMARK  158  A    between atoms: _419  and  _420
REMARK  159  A    between atoms: _420  and  _421
REMARK  160  A    between atoms: _421  and  _422
REMARK  161  A    between atoms: _426  and  _428
REMARK  162  A    between atoms: _428  and  _429
REMARK  163  A    between atoms: _428  and  _431
REMARK  164  A    between atoms: _431  and  _432
REMARK  165  A    between atoms: _437  and  _439
REMARK  166  A    between atoms: _439  and  _440
REMARK  167  A    between atoms: _439  and  _442
REMARK  168  A    between atoms: _442  and  _443
REMARK  169  A    between atoms: _443  and  _444
REMARK  170  A    between atoms: _447  and  _449
REMARK  171  A    between atoms: _449  and  _450
REMARK  172  A    between atoms: _449  and  _452
REMARK  173  A    between atoms: _455  and  _457
REMARK  174  A    between atoms: _457  and  _458
REMARK  175  A    between atoms: _457  and  _460
REMARK  176  A    between atoms: _460  and  _461
REMARK  177  A    between atoms: _464  and  _466
REMARK  178  A    between atoms: _466  and  _467
REMARK  179  A    between atoms: _466  and  _469
REMARK  180  A    between atoms: _469  and  _470
REMARK  181  A    between atoms: _473  and  _475
REMARK  182  A    between atoms: _475  and  _476
REMARK  183  A    between atoms: _475  and  _478
REMARK  184  A    between atoms: _478  and  _479
REMARK  185  A    between atoms: _482  and  _484
REMARK  186  A    between atoms: _484  and  _485
REMARK  187  A    between atoms: _487  and  _489
REMARK  188  A    between atoms: _489  and  _490
REMARK  189  A    between atoms: _492  and  _494
REMARK  190  A    between atoms: _494  and  _495
REMARK  191  A    between atoms: _494  and  _497
REMARK  192  A    between atoms: _497  and  _498
REMARK  193  A    between atoms: _498  and  _499
REMARK  194  A    between atoms: _502  and  _504
REMARK  195  A    between atoms: _504  and  _505
REMARK  196  A    between atoms: _504  and  _507
REMARK  197  A    between atoms: _507  and  _508
REMARK  198  A    between atoms: _511  and  _513
REMARK  199  A    between atoms: _513  and  _514
REMARK  200  A    between atoms: _513  and  _516
REMARK  201  A    between atoms: _516  and  _517
REMARK  202  A    between atoms: _523  and  _525
REMARK  203  A    between atoms: _525  and  _526
REMARK  204  A    between atoms: _525  and  _528
REMARK  205  A    between atoms: _528  and  _529
REMARK  206  A    between atoms: _534  and  _536
REMARK  207  A    between atoms: _536  and  _537
REMARK  208  A    between atoms: _536  and  _539
REMARK  209  A    between atoms: _539  and  _540
REMARK  210  A    between atoms: _545  and  _547
REMARK  211  A    between atoms: _547  and  _548
REMARK  212  A    between atoms: _547  and  _550
REMARK  213  A    between atoms: _550  and  _551
REMARK  214  A    between atoms: _554  and  _556
REMARK  215  A    between atoms: _556  and  _557
REMARK  216  A    between atoms: _556  and  _559
REMARK  217  A    between atoms: _559  and  _560
REMARK  218  A    between atoms: _565  and  _567
REMARK  219  A    between atoms: _567  and  _568
REMARK  220  A    between atoms: _567  and  _570
REMARK  221  A    between atoms: _570  and  _571
REMARK  222  A    between atoms: _571  and  _572
REMARK  223  A    between atoms: _572  and  _573
REMARK  224  A    between atoms: _582  and  _584
REMARK  225  A    between atoms: _584  and  _585
REMARK  226  A    between atoms: _587  and  _589
REMARK  227  A    between atoms: _589  and  _590
REMARK  228  A    between atoms: _589  and  _592
REMARK  229  A    between atoms: _592  and  _593
REMARK  230  A    between atoms: _598  and  _600
REMARK  231  A    between atoms: _600  and  _601
REMARK  232  A    between atoms: _603  and  _605
REMARK  233  A    between atoms: _605  and  _606
REMARK  234  A    between atoms: _609  and  _611
REMARK  235  A    between atoms: _611  and  _612
REMARK  236  A    between atoms: _614  and  _616
REMARK  237  A    between atoms: _616  and  _617
REMARK  238  A    between atoms: _619  and  _621
REMARK  239  A    between atoms: _621  and  _622
REMARK  240  A    between atoms: _621  and  _624
REMARK  241  A    between atoms: _624  and  _625
REMARK  242  A    between atoms: _625  and  _626
REMARK  243  A    between atoms: _626  and  _627
REMARK  244  A    between atoms: _636  and  _638
REMARK  245  A    between atoms: _638  and  _639
REMARK  246  A    between atoms: _638  and  _641
REMARK  247  A    between atoms: _641  and  _642
REMARK  248  A    between atoms: _645  and  _647
REMARK  249  A    between atoms: _647  and  _648
REMARK  250  A    between atoms: _647  and  _650
REMARK  251  A    between atoms: _650  and  _651
REMARK                            x       y       z     vdW  Elec       q    Type
REMARK                         _______ _______ _______ _____ _____    ______ ____
ROOT
ATOM      1  O   HOH     1      12.838   7.734  44.631  0.00  0.00    +0.000 OA
ENDROOT
TORSDOF 0
REMARK  Name = ../refined-set-2016/1xd0/1xd0_pocket.pdb
REMARK  251 active torsions:
REMARK  status: ('A' for Active; 'I' for Inactive)
REMARK    1  A    between atoms: _1  and  _3
REMARK    2  A    between atoms: _3  and  _4
REMARK    3  A    between atoms: _3  and  _6
REMARK    4  A    between atoms: _6  and  _7
REMARK    5  A    between atoms: _13  and  _15
REMARK    6  A    between atoms: _15  and  _16
REMARK    7  A    between atoms: _15  and  _18
REMARK    8  A    between atoms: _18  and  _19
REMARK    9  A    between atoms: _19  and  _20
REMARK   10  A    between atoms: _26  and  _27
REMARK   11  A    between atoms: _32  and  _34
REMARK   12  A    between atoms: _34  and  _35
REMARK   13  A    between atoms: _34  and  _37
REMARK   14  A    between atoms: _37  and  _38
REMARK   15  A    between atoms: _43  and  _45
REMARK   16  A    between atoms: _45  and  _46
REMARK   17  A    between atoms: _45  and  _48
REMARK   18  A    between atoms: _51  and  _53
REMARK   19  A    between atoms: _53  and  _54
REMARK   20  A    between atoms: _53  and  _56
REMARK   21  A    between atoms: _56  and  _57
REMARK   22  A    between atoms: _61  and  _62
REMARK   23  A    between atoms: _68  and  _69
REMARK   24  A    between atoms: _74  and  _76
REMARK   25  A    between atoms: _76  and  _77
REMARK   26  A    between atoms: _76  and  _79
REMARK   27  A    between atoms: _79  and  _80
REMARK   28  A    between atoms: _90  and  _92
REMARK   29  A    between atoms: _92  and  _93
REMARK   30  A    between atoms: _92  and  _95
REMARK   31  A    between atoms: _95  and  _96
REMARK   32  A    between atoms: _106  and  _108
REMARK   33  A    between atoms: _108  and  _109
REMARK   34  A    between atoms: _108  and  _111
REMARK   35  A    between atoms: _111  and  _112
REMARK   36  A    between atoms: _112  and  _113
REMARK   37  A    between atoms: _116  and  _118
REMARK   38  A    between atoms: _118  and  _119
REMARK   39  A    between atoms: _118  and  _121
REMARK   40  A    between atoms: _121  and  _122
REMARK   41  A    between atoms: _122  and  _123
REMARK   42  A    between atoms: _123  and  _124
REMARK   43  A    between atoms: _133  and  _135
REMARK   44  A    between atoms: _135  and  _136
REMARK   45  A    between atoms: _135  and  _138
REMARK   46  A    between atoms: _138  and  _139
REMARK   47  A    between atoms: _144  and  _145
REMARK   48  A    between atoms: _147  and  _149
REMARK   49  A    between atoms: _149  and  _150
REMARK   50  A    between atoms: _149  and  _152
REMARK   51  A    between atoms: _152  and  _153
REMARK   52  A    between atoms: _153  and  _154
REMARK   53  A    between atoms: _160  and  _161
REMARK   54  A    between atoms: _166  and  _168
REMARK   55  A    between atoms: _168  and  _169
REMARK   56  A    between atoms: _168  and  _171
REMARK   57  A    between atoms: _171  and  _172
REMARK   58  A    between atoms: _175  and  _177
REMARK   59  A    between atoms: _177  and  _178
REMARK   60  A    between atoms: _181  and  _183
REMARK   61  A    between atoms: _183  and  _184
REMARK   62  A    between atoms: _183  and  _186
REMARK   63  A    between atoms: _189  and  _191
REMARK   64  A    between atoms: _191  and  _192
REMARK   65  A    between atoms: _191  and  _194
REMARK   66  A    between atoms: _194  and  _195
REMARK   67  A    between atoms: _198  and  _200
REMARK   68  A    between atoms: _200  and  _201
REMARK   69  A    between atoms: _200  and  _203
REMARK   70  A    between atoms: _203  and  _204
REMARK   71  A    between atoms: _209  and  _211
REMARK   72  A    between atoms: _211  and  _212
REMARK   73  A    between atoms: _211  and  _214
REMARK   74  A    between atoms: _214  and  _215
REMARK   75  A    between atoms: _220  and  _222
REMARK   76  A    between atoms: _222  and  _223
REMARK   77  A    between atoms: _222  and  _225
REMARK   78  A    between atoms: _225  and  _226
REMARK   79  A    between atoms: _226  and  _227
REMARK   80  A    between atoms: _229  and  _231
REMARK   81  A    between atoms: _231  and  _232
REMARK   82  A    between atoms: _231  and  _234
REMARK   83  A    between atoms: _236  and  _238
REMARK   84  A    between atoms: _238  and  _239
REMARK   85  A    between atoms: _241  and  _243
REMARK   86  A    between atoms: _243  and  _244
REMARK   87  A    between atoms: _243  and  _246
REMARK   88  A    between atoms: _246  and  _247
REMARK   89  A    between atoms: _252  and  _254
REMARK   90  A    between atoms: _254  and  _255
REMARK   91  A    between atoms: _258  and  _260
REMARK   92  A    between atoms: _260  and  _261
REMARK   93  A    between atoms: _260  and  _263
REMARK   94  A    between atoms: _266  and  _268
REMARK   95  A    between atoms: _268  and  _269
REMARK   96  A    between atoms: _268  and  _271
REMARK   97  A    between atoms: _271  and  _272
REMARK   98  A    between atoms: _275  and  _277
REMARK   99  A    between atoms: _277  and  _278
REMARK  100  A    between atoms: _277  and  _280
REMARK  101  A    between atoms: _280  and  _281
REMARK  102  A    between atoms: _284  and  _286
REMARK  103  A    between atoms: _286  and  _287
REMARK  104  A    between atoms: _286  and  _289
REMARK  105  A    between atoms: _289  and  _290
REMARK  106  A    between atoms: _295  and  _296
REMARK  107  A    between atoms: _298  and  _300
REMARK  108  A    between atoms: _300  and  _301
REMARK  109  A    between atoms: _300  and  _303
REMARK  110  A    between atoms: _306  and  _308
REMARK  111  A    between atoms: _308  and  _309
REMARK  112  A    between atoms: _308  and  _311
REMARK  113  A    between atoms: _311  and  _312
REMARK  114  A    between atoms: _312  and  _313
REMARK  115  A    between atoms: _313  and  _314
REMARK  116  A    between atoms: _323  and  _325
REMARK  117  A    between atoms: _325  and  _326
REMARK  118  A    between atoms: _325  and  _328
REMARK  119  A    between atoms: _328  and  _329
REMARK  120  A    between atoms: _332  and  _334
REMARK  121  A    between atoms: _334  and  _335
REMARK  122  A    between atoms: _334  and  _337
REMARK  123  A    between atoms: _337  and  _338
REMARK  124  A    between atoms: _341  and  _343
REMARK  125  A    between atoms: _343  and  _344
REMARK  126  A    between atoms: _346  and  _348
REMARK  127  A    between atoms: _348  and  _349
REMARK  128  A    between atoms: _348  and  _351
REMARK  129  A    between atoms: _351  and  _352
REMARK  130  A    between atoms: _355  and  _357
REMARK  131  A    between atoms: _357  and  _358
REMARK  132  A    between atoms: _357  and  _360
REMARK  133  A    between atoms: _360  and  _361
REMARK  134  A    between atoms: _364  and  _366
REMARK  135  A    between atoms: _366  and  _367
REMARK  136  A    between atoms: _366  and  _369
REMARK  137  A    between atoms: _369  and  _370
REMARK  138  A    between atoms: _370  and  _371
REMARK  139  A    between atoms: _371  and  _372
REMARK  140  A    between atoms: _381  and  _383
REMARK  141  A    between atoms: _383  and  _384
REMARK  142  A    between atoms: _383  and  _386
REMARK  143  A    between atoms: _386  and  _387
REMARK  144  A    between atoms: _390  and  _392
REMARK  145  A    between atoms: _392  and  _393
REMARK  146  A    between atoms: _392  and  _395
REMARK  147  A    between atoms: _395  and  _396
REMARK  148  A    between atoms: _399  and  _401
REMARK  149  A    between atoms: _401  and  _402
REMARK  150  A    between atoms: _405  and  _407
REMARK  151  A    between atoms: _407  and  _408
REMARK  152  A    between atoms: _407  and  _410
REMARK  153  A    between atoms: _410  and  _411
REMARK  154  A    between atoms: _413  and  _415
REMARK  155  A    between atoms: _415  and  _416
REMARK  156  A    between atoms: _415  and  _418
REMARK  157  A    between atoms: _418  and  _419
REMARK  158  A    between atoms: _419  and  _420
REMARK  159  A    between atoms: _420  and  _421
REMARK  160  A    between atoms: _421  and  _422
REMARK  161  A    between atoms: _426  and  _428
REMARK  162  A    between atoms: _428  and  _429
REMARK  163  A    between atoms: _428  and  _431
REMARK  164  A    between atoms: _431  and  _432
REMARK  165  A    between atoms: _437  and  _439
REMARK  166  A    between atoms: _439  and  _440
REMARK  167  A    between atoms: _439  and  _442
REMARK  168  A    between atoms: _442  and  _443
REMARK  169  A    between atoms: _443  and  _444
REMARK  170  A    between atoms: _447  and  _449
REMARK  171  A    between atoms: _449  and  _450
REMARK  172  A    between atoms: _449  and  _452
REMARK  173  A    between atoms: _455  and  _457
REMARK  174  A    between atoms: _457  and  _458
REMARK  175  A    between atoms: _457  and  _460
REMARK  176  A    between atoms: _460  and  _461
REMARK  177  A    between atoms: _464  and  _466
REMARK  178  A    between atoms: _466  and  _467
REMARK  179  A    between atoms: _466  and  _469
REMARK  180  A    between atoms: _469  and  _470
REMARK  181  A    between atoms: _473  and  _475
REMARK  182  A    between atoms: _475  and  _476
REMARK  183  A    between atoms: _475  and  _478
REMARK  184  A    between atoms: _478  and  _479
REMARK  185  A    between atoms: _482  and  _484
REMARK  186  A    between atoms: _484  and  _485
REMARK  187  A    between atoms: _487  and  _489
REMARK  188  A    between atoms: _489  and  _490
REMARK  189  A    between atoms: _492  and  _494
REMARK  190  A    between atoms: _494  and  _495
REMARK  191  A    between atoms: _494  and  _497
REMARK  192  A    between atoms: _497  and  _498
REMARK  193  A    between atoms: _498  and  _499
REMARK  194  A    between atoms: _502  and  _504
REMARK  195  A    between atoms: _504  and  _505
REMARK  196  A    between atoms: _504  and  _507
REMARK  197  A    between atoms: _507  and  _508
REMARK  198  A    between atoms: _511  and  _513
REMARK  199  A    between atoms: _513  and  _514
REMARK  200  A    between atoms: _513  and  _516
REMARK  201  A    between atoms: _516  and  _517
REMARK  202  A    between atoms: _523  and  _525
REMARK  203  A    between atoms: _525  and  _526
REMARK  204  A    between atoms: _525  and  _528
REMARK  205  A    between atoms: _528  and  _529
REMARK  206  A    between atoms: _534  and  _536
REMARK  207  A    between atoms: _536  and  _537
REMARK  208  A    between atoms: _536  and  _539
REMARK  209  A    between atoms: _539  and  _540
REMARK  210  A    between atoms: _545  and  _547
REMARK  211  A    between atoms: _547  and  _548
REMARK  212  A    between atoms: _547  and  _550
REMARK  213  A    between atoms: _550  and  _551
REMARK  214  A    between atoms: _554  and  _556
REMARK  215  A    between atoms: _556  and  _557
REMARK  216  A    between atoms: _556  and  _559
REMARK  217  A    between atoms: _559  and  _560
REMARK  218  A    between atoms: _565  and  _567
REMARK  219  A    between atoms: _567  and  _568
REMARK  220  A    between atoms: _567  and  _570
REMARK  221  A    between atoms: _570  and  _571
REMARK  222  A    between atoms: _571  and  _572
REMARK  223  A    between atoms: _572  and  _573
REMARK  224  A    between atoms: _582  and  _584
REMARK  225  A    between atoms: _584  and  _585
REMARK  226  A    between atoms: _587  and  _589
REMARK  227  A    between atoms: _589  and  _590
REMARK  228  A    between atoms: _589  and  _592
REMARK  229  A    between atoms: _592  and  _593
REMARK  230  A    between atoms: _598  and  _600
REMARK  231  A    between atoms: _600  and  _601
REMARK  232  A    between atoms: _603  and  _605
REMARK  233  A    between atoms: _605  and  _606
REMARK  234  A    between atoms: _609  and  _611
REMARK  235  A    between atoms: _611  and  _612
REMARK  236  A    between atoms: _614  and  _616
REMARK  237  A    between atoms: _616  and  _617
REMARK  238  A    between atoms: _619  and  _621
REMARK  239  A    between atoms: _621  and  _622
REMARK  240  A    between atoms: _621  and  _624
REMARK  241  A    between atoms: _624  and  _625
REMARK  242  A    between atoms: _625  and  _626
REMARK  243  A    between atoms: _626  and  _627
REMARK  244  A    between atoms: _636  and  _638
REMARK  245  A    between atoms: _638  and  _639
REMARK  246  A    between atoms: _638  and  _641
REMARK  247  A    between atoms: _641  and  _642
REMARK  248  A    between atoms: _645  and  _647
REMARK  249  A    between atoms: _647  and  _648
REMARK  250  A    between atoms: _647  and  _650
REMARK  251  A    between atoms: _650  and  _651
REMARK                            x       y       z     vdW  Elec       q    Type
REMARK                         _______ _______ _______ _____ _____    ______ ____
ROOT
ATOM      1  O   HOH     1      10.177  25.021  48.201  0.00  0.00    +0.000 OA
ENDROOT
TORSDOF 0
REMARK  Name = ../refined-set-2016/1xd0/1xd0_pocket.pdb
REMARK  251 active torsions:
REMARK  status: ('A' for Active; 'I' for Inactive)
REMARK    1  A    between atoms: _1  and  _3
REMARK    2  A    between atoms: _3  and  _4
REMARK    3  A    between atoms: _3  and  _6
REMARK    4  A    between atoms: _6  and  _7
REMARK    5  A    between atoms: _13  and  _15
REMARK    6  A    between atoms: _15  and  _16
REMARK    7  A    between atoms: _15  and  _18
REMARK    8  A    between atoms: _18  and  _19
REMARK    9  A    between atoms: _19  and  _20
REMARK   10  A    between atoms: _26  and  _27
REMARK   11  A    between atoms: _32  and  _34
REMARK   12  A    between atoms: _34  and  _35
REMARK   13  A    between atoms: _34  and  _37
REMARK   14  A    between atoms: _37  and  _38
REMARK   15  A    between atoms: _43  and  _45
REMARK   16  A    between atoms: _45  and  _46
REMARK   17  A    between atoms: _45  and  _48
REMARK   18  A    between atoms: _51  and  _53
REMARK   19  A    between atoms: _53  and  _54
REMARK   20  A    between atoms: _53  and  _56
REMARK   21  A    between atoms: _56  and  _57
REMARK   22  A    between atoms: _61  and  _62
REMARK   23  A    between atoms: _68  and  _69
REMARK   24  A    between atoms: _74  and  _76
REMARK   25  A    between atoms: _76  and  _77
REMARK   26  A    between atoms: _76  and  _79
REMARK   27  A    between atoms: _79  and  _80
REMARK   28  A    between atoms: _90  and  _92
REMARK   29  A    between atoms: _92  and  _93
REMARK   30  A    between atoms: _92  and  _95
REMARK   31  A    between atoms: _95  and  _96
REMARK   32  A    between atoms: _106  and  _108
REMARK   33  A    between atoms: _108  and  _109
REMARK   34  A    between atoms: _108  and  _111
REMARK   35  A    between atoms: _111  and  _112
REMARK   36  A    between atoms: _112  and  _113
REMARK   37  A    between atoms: _116  and  _118
REMARK   38  A    between atoms: _118  and  _119
REMARK   39  A    between atoms: _118  and  _121
REMARK   40  A    between atoms: _121  and  _122
REMARK   41  A    between atoms: _122  and  _123
REMARK   42  A    between atoms: _123  and  _124
REMARK   43  A    between atoms: _133  and  _135
REMARK   44  A    between atoms: _135  and  _136
REMARK   45  A    between atoms: _135  and  _138
REMARK   46  A    between atoms: _138  and  _139
REMARK   47  A    between atoms: _144  and  _145
REMARK   48  A    between atoms: _147  and  _149
REMARK   49  A    between atoms: _149  and  _150
REMARK   50  A    between atoms: _149  and  _152
REMARK   51  A    between atoms: _152  and  _153
REMARK   52  A    between atoms: _153  and  _154
REMARK   53  A    between atoms: _160  and  _161
REMARK   54  A    between atoms: _166  and  _168
REMARK   55  A    between atoms: _168  and  _169
REMARK   56  A    between atoms: _168  and  _171
REMARK   57  A    between atoms: _171  and  _172
REMARK   58  A    between atoms: _175  and  _177
REMARK   59  A    between atoms: _177  and  _178
REMARK   60  A    between atoms: _181  and  _183
REMARK   61  A    between atoms: _183  and  _184
REMARK   62  A    between atoms: _183  and  _186
REMARK   63  A    between atoms: _189  and  _191
REMARK   64  A    between atoms: _191  and  _192
REMARK   65  A    between atoms: _191  and  _194
REMARK   66  A    between atoms: _194  and  _195
REMARK   67  A    between atoms: _198  and  _200
REMARK   68  A    between atoms: _200  and  _201
REMARK   69  A    between atoms: _200  and  _203
REMARK   70  A    between atoms: _203  and  _204
REMARK   71  A    between atoms: _209  and  _211
REMARK   72  A    between atoms: _211  and  _212
REMARK   73  A    between atoms: _211  and  _214
REMARK   74  A    between atoms: _214  and  _215
REMARK   75  A    between atoms: _220  and  _222
REMARK   76  A    between atoms: _222  and  _223
REMARK   77  A    between atoms: _222  and  _225
REMARK   78  A    between atoms: _225  and  _226
REMARK   79  A    between atoms: _226  and  _227
REMARK   80  A    between atoms: _229  and  _231
REMARK   81  A    between atoms: _231  and  _232
REMARK   82  A    between atoms: _231  and  _234
REMARK   83  A    between atoms: _236  and  _238
REMARK   84  A    between atoms: _238  and  _239
REMARK   85  A    between atoms: _241  and  _243
REMARK   86  A    between atoms: _243  and  _244
REMARK   87  A    between atoms: _243  and  _246
REMARK   88  A    between atoms: _246  and  _247
REMARK   89  A    between atoms: _252  and  _254
REMARK   90  A    between atoms: _254  and  _255
REMARK   91  A    between atoms: _258  and  _260
REMARK   92  A    between atoms: _260  and  _261
REMARK   93  A    between atoms: _260  and  _263
REMARK   94  A    between atoms: _266  and  _268
REMARK   95  A    between atoms: _268  and  _269
REMARK   96  A    between atoms: _268  and  _271
REMARK   97  A    between atoms: _271  and  _272
REMARK   98  A    between atoms: _275  and  _277
REMARK   99  A    between atoms: _277  and  _278
REMARK  100  A    between atoms: _277  and  _280
REMARK  101  A    between atoms: _280  and  _281
REMARK  102  A    between atoms: _284  and  _286
REMARK  103  A    between atoms: _286  and  _287
REMARK  104  A    between atoms: _286  and  _289
REMARK  105  A    between atoms: _289  and  _290
REMARK  106  A    between atoms: _295  and  _296
REMARK  107  A    between atoms: _298  and  _300
REMARK  108  A    between atoms: _300  and  _301
REMARK  109  A    between atoms: _300  and  _303
REMARK  110  A    between atoms: _306  and  _308
REMARK  111  A    between atoms: _308  and  _309
REMARK  112  A    between atoms: _308  and  _311
REMARK  113  A    between atoms: _311  and  _312
REMARK  114  A    between atoms: _312  and  _313
REMARK  115  A    between atoms: _313  and  _314
REMARK  116  A    between atoms: _323  and  _325
REMARK  117  A    between atoms: _325  and  _326
REMARK  118  A    between atoms: _325  and  _328
REMARK  119  A    between atoms: _328  and  _329
REMARK  120  A    between atoms: _332  and  _334
REMARK  121  A    between atoms: _334  and  _335
REMARK  122  A    between atoms: _334  and  _337
REMARK  123  A    between atoms: _337  and  _338
REMARK  124  A    between atoms: _341  and  _343
REMARK  125  A    between atoms: _343  and  _344
REMARK  126  A    between atoms: _346  and  _348
REMARK  127  A    between atoms: _348  and  _349
REMARK  128  A    between atoms: _348  and  _351
REMARK  129  A    between atoms: _351  and  _352
REMARK  130  A    between atoms: _355  and  _357
REMARK  131  A    between atoms: _357  and  _358
REMARK  132  A    between atoms: _357  and  _360
REMARK  133  A    between atoms: _360  and  _361
REMARK  134  A    between atoms: _364  and  _366
REMARK  135  A    between atoms: _366  and  _367
REMARK  136  A    between atoms: _366  and  _369
REMARK  137  A    between atoms: _369  and  _370
REMARK  138  A    between atoms: _370  and  _371
REMARK  139  A    between atoms: _371  and  _372
REMARK  140  A    between atoms: _381  and  _383
REMARK  141  A    between atoms: _383  and  _384
REMARK  142  A    between atoms: _383  and  _386
REMARK  143  A    between atoms: _386  and  _387
REMARK  144  A    between atoms: _390  and  _392
REMARK  145  A    between atoms: _392  and  _393
REMARK  146  A    between atoms: _392  and  _395
REMARK  147  A    between atoms: _395  and  _396
REMARK  148  A    between atoms: _399  and  _401
REMARK  149  A    between atoms: _401  and  _402
REMARK  150  A    between atoms: _405  and  _407
REMARK  151  A    between atoms: _407  and  _408
REMARK  152  A    between atoms: _407  and  _410
REMARK  153  A    between atoms: _410  and  _411
REMARK  154  A    between atoms: _413  and  _415
REMARK  155  A    between atoms: _415  and  _416
REMARK  156  A    between atoms: _415  and  _418
REMARK  157  A    between atoms: _418  and  _419
REMARK  158  A    between atoms: _419  and  _420
REMARK  159  A    between atoms: _420  and  _421
REMARK  160  A    between atoms: _421  and  _422
REMARK  161  A    between atoms: _426  and  _428
REMARK  162  A    between atoms: _428  and  _429
REMARK  163  A    between atoms: _428  and  _431
REMARK  164  A    between atoms: _431  and  _432
REMARK  165  A    between atoms: _437  and  _439
REMARK  166  A    between atoms: _439  and  _440
REMARK  167  A    between atoms: _439  and  _442
REMARK  168  A    between atoms: _442  and  _443
REMARK  169  A    between atoms: _443  and  _444
REMARK  170  A    between atoms: _447  and  _449
REMARK  171  A    between atoms: _449  and  _450
REMARK  172  A    between atoms: _449  and  _452
REMARK  173  A    between atoms: _455  and  _457
REMARK  174  A    between atoms: _457  and  _458
REMARK  175  A    between atoms: _457  and  _460
REMARK  176  A    between atoms: _460  and  _461
REMARK  177  A    between atoms: _464  and  _466
REMARK  178  A    between atoms: _466  and  _467
REMARK  179  A    between atoms: _466  and  _469
REMARK  180  A    between atoms: _469  and  _470
REMARK  181  A    between atoms: _473  and  _475
REMARK  182  A    between atoms: _475  and  _476
REMARK  183  A    between atoms: _475  and  _478
REMARK  184  A    between atoms: _478  and  _479
REMARK  185  A    between atoms: _482  and  _484
REMARK  186  A    between atoms: _484  and  _485
REMARK  187  A    between atoms: _487  and  _489
REMARK  188  A    between atoms: _489  and  _490
REMARK  189  A    between atoms: _492  and  _494
REMARK  190  A    between atoms: _494  and  _495
REMARK  191  A    between atoms: _494  and  _497
REMARK  192  A    between atoms: _497  and  _498
REMARK  193  A    between atoms: _498  and  _499
REMARK  194  A    between atoms: _502  and  _504
REMARK  195  A    between atoms: _504  and  _505
REMARK  196  A    between atoms: _504  and  _507
REMARK  197  A    between atoms: _507  and  _508
REMARK  198  A    between atoms: _511  and  _513
REMARK  199  A    between atoms: _513  and  _514
REMARK  200  A    between atoms: _513  and  _516
REMARK  201  A    between atoms: _516  and  _517
REMARK  202  A    between atoms: _523  and  _525
REMARK  203  A    between atoms: _525  and  _526
REMARK  204  A    between atoms: _525  and  _528
REMARK  205  A    between atoms: _528  and  _529
REMARK  206  A    between atoms: _534  and  _536
REMARK  207  A    between atoms: _536  and  _537
REMARK  208  A    between atoms: _536  and  _539
REMARK  209  A    between atoms: _539  and  _540
REMARK  210  A    between atoms: _545  and  _547
REMARK  211  A    between atoms: _547  and  _548
REMARK  212  A    between atoms: _547  and  _550
REMARK  213  A    between atoms: _550  and  _551
REMARK  214  A    between atoms: _554  and  _556
REMARK  215  A    between atoms: _556  and  _557
REMARK  216  A    between atoms: _556  and  _559
REMARK  217  A    between atoms: _559  and  _560
REMARK  218  A    between atoms: _565  and  _567
REMARK  219  A    between atoms: _567  and  _568
REMARK  220  A    between atoms: _567  and  _570
REMARK  221  A    between atoms: _570  and  _571
REMARK  222  A    between atoms: _571  and  _572
REMARK  223  A    between atoms: _572  and  _573
REMARK  224  A    between atoms: _582  and  _584
REMARK  225  A    between atoms: _584  and  _585
REMARK  226  A    between atoms: _587  and  _589
REMARK  227  A    between atoms: _589  and  _590
REMARK  228  A    between atoms: _589  and  _592
REMARK  229  A    between atoms: _592  and  _593
REMARK  230  A    between atoms: _598  and  _600
REMARK  231  A    between atoms: _600  and  _601
REMARK  232  A    between atoms: _603  and  _605
REMARK  233  A    between atoms: _605  and  _606
REMARK  234  A    between atoms: _609  and  _611
REMARK  235  A    between atoms: _611  and  _612
REMARK  236  A    between atoms: _614  and  _616
REMARK  237  A    between atoms: _616  and  _617
REMARK  238  A    between atoms: _619  and  _621
REMARK  239  A    between atoms: _621  and  _622
REMARK  240  A    between atoms: _621  and  _624
REMARK  241  A    between atoms: _624  and  _625
REMARK  242  A    between atoms: _625  and  _626
REMARK  243  A    between atoms: _626  and  _627
REMARK  244  A    between atoms: _636  and  _638
REMARK  245  A    between atoms: _638  and  _639
REMARK  246  A    between atoms: _638  and  _641
REMARK  247  A    between atoms: _641  and  _642
REMARK  248  A    between atoms: _645  and  _647
REMARK  249  A    between atoms: _647  and  _648
REMARK  250  A    between atoms: _647  and  _650
REMARK  251  A    between atoms: _650  and  _651
REMARK                            x       y       z     vdW  Elec       q    Type
REMARK                         _______ _______ _______ _____ _____    ______ ____
ROOT
ATOM      1  O   HOH     1       9.540  27.760  47.401  0.00  0.00    +0.000 OA
ENDROOT
TORSDOF 0
REMARK  Name = ../refined-set-2016/1xd0/1xd0_pocket.pdb
REMARK  251 active torsions:
REMARK  status: ('A' for Active; 'I' for Inactive)
REMARK    1  A    between atoms: _1  and  _3
REMARK    2  A    between atoms: _3  and  _4
REMARK    3  A    between atoms: _3  and  _6
REMARK    4  A    between atoms: _6  and  _7
REMARK    5  A    between atoms: _13  and  _15
REMARK    6  A    between atoms: _15  and  _16
REMARK    7  A    between atoms: _15  and  _18
REMARK    8  A    between atoms: _18  and  _19
REMARK    9  A    between atoms: _19  and  _20
REMARK   10  A    between atoms: _26  and  _27
REMARK   11  A    between atoms: _32  and  _34
REMARK   12  A    between atoms: _34  and  _35
REMARK   13  A    between atoms: _34  and  _37
REMARK   14  A    between atoms: _37  and  _38
REMARK   15  A    between atoms: _43  and  _45
REMARK   16  A    between atoms: _45  and  _46
REMARK   17  A    between atoms: _45  and  _48
REMARK   18  A    between atoms: _51  and  _53
REMARK   19  A    between atoms: _53  and  _54
REMARK   20  A    between atoms: _53  and  _56
REMARK   21  A    between atoms: _56  and  _57
REMARK   22  A    between atoms: _61  and  _62
REMARK   23  A    between atoms: _68  and  _69
REMARK   24  A    between atoms: _74  and  _76
REMARK   25  A    between atoms: _76  and  _77
REMARK   26  A    between atoms: _76  and  _79
REMARK   27  A    between atoms: _79  and  _80
REMARK   28  A    between atoms: _90  and  _92
REMARK   29  A    between atoms: _92  and  _93
REMARK   30  A    between atoms: _92  and  _95
REMARK   31  A    between atoms: _95  and  _96
REMARK   32  A    between atoms: _106  and  _108
REMARK   33  A    between atoms: _108  and  _109
REMARK   34  A    between atoms: _108  and  _111
REMARK   35  A    between atoms: _111  and  _112
REMARK   36  A    between atoms: _112  and  _113
REMARK   37  A    between atoms: _116  and  _118
REMARK   38  A    between atoms: _118  and  _119
REMARK   39  A    between atoms: _118  and  _121
REMARK   40  A    between atoms: _121  and  _122
REMARK   41  A    between atoms: _122  and  _123
REMARK   42  A    between atoms: _123  and  _124
REMARK   43  A    between atoms: _133  and  _135
REMARK   44  A    between atoms: _135  and  _136
REMARK   45  A    between atoms: _135  and  _138
REMARK   46  A    between atoms: _138  and  _139
REMARK   47  A    between atoms: _144  and  _145
REMARK   48  A    between atoms: _147  and  _149
REMARK   49  A    between atoms: _149  and  _150
REMARK   50  A    between atoms: _149  and  _152
REMARK   51  A    between atoms: _152  and  _153
REMARK   52  A    between atoms: _153  and  _154
REMARK   53  A    between atoms: _160  and  _161
REMARK   54  A    between atoms: _166  and  _168
REMARK   55  A    between atoms: _168  and  _169
REMARK   56  A    between atoms: _168  and  _171
REMARK   57  A    between atoms: _171  and  _172
REMARK   58  A    between atoms: _175  and  _177
REMARK   59  A    between atoms: _177  and  _178
REMARK   60  A    between atoms: _181  and  _183
REMARK   61  A    between atoms: _183  and  _184
REMARK   62  A    between atoms: _183  and  _186
REMARK   63  A    between atoms: _189  and  _191
REMARK   64  A    between atoms: _191  and  _192
REMARK   65  A    between atoms: _191  and  _194
REMARK   66  A    between atoms: _194  and  _195
REMARK   67  A    between atoms: _198  and  _200
REMARK   68  A    between atoms: _200  and  _201
REMARK   69  A    between atoms: _200  and  _203
REMARK   70  A    between atoms: _203  and  _204
REMARK   71  A    between atoms: _209  and  _211
REMARK   72  A    between atoms: _211  and  _212
REMARK   73  A    between atoms: _211  and  _214
REMARK   74  A    between atoms: _214  and  _215
REMARK   75  A    between atoms: _220  and  _222
REMARK   76  A    between atoms: _222  and  _223
REMARK   77  A    between atoms: _222  and  _225
REMARK   78  A    between atoms: _225  and  _226
REMARK   79  A    between atoms: _226  and  _227
REMARK   80  A    between atoms: _229  and  _231
REMARK   81  A    between atoms: _231  and  _232
REMARK   82  A    between atoms: _231  and  _234
REMARK   83  A    between atoms: _236  and  _238
REMARK   84  A    between atoms: _238  and  _239
REMARK   85  A    between atoms: _241  and  _243
REMARK   86  A    between atoms: _243  and  _244
REMARK   87  A    between atoms: _243  and  _246
REMARK   88  A    between atoms: _246  and  _247
REMARK   89  A    between atoms: _252  and  _254
REMARK   90  A    between atoms: _254  and  _255
REMARK   91  A    between atoms: _258  and  _260
REMARK   92  A    between atoms: _260  and  _261
REMARK   93  A    between atoms: _260  and  _263
REMARK   94  A    between atoms: _266  and  _268
REMARK   95  A    between atoms: _268  and  _269
REMARK   96  A    between atoms: _268  and  _271
REMARK   97  A    between atoms: _271  and  _272
REMARK   98  A    between atoms: _275  and  _277
REMARK   99  A    between atoms: _277  and  _278
REMARK  100  A    between atoms: _277  and  _280
REMARK  101  A    between atoms: _280  and  _281
REMARK  102  A    between atoms: _284  and  _286
REMARK  103  A    between atoms: _286  and  _287
REMARK  104  A    between atoms: _286  and  _289
REMARK  105  A    between atoms: _289  and  _290
REMARK  106  A    between atoms: _295  and  _296
REMARK  107  A    between atoms: _298  and  _300
REMARK  108  A    between atoms: _300  and  _301
REMARK  109  A    between atoms: _300  and  _303
REMARK  110  A    between atoms: _306  and  _308
REMARK  111  A    between atoms: _308  and  _309
REMARK  112  A    between atoms: _308  and  _311
REMARK  113  A    between atoms: _311  and  _312
REMARK  114  A    between atoms: _312  and  _313
REMARK  115  A    between atoms: _313  and  _314
REMARK  116  A    between atoms: _323  and  _325
REMARK  117  A    between atoms: _325  and  _326
REMARK  118  A    between atoms: _325  and  _328
REMARK  119  A    between atoms: _328  and  _329
REMARK  120  A    between atoms: _332  and  _334
REMARK  121  A    between atoms: _334  and  _335
REMARK  122  A    between atoms: _334  and  _337
REMARK  123  A    between atoms: _337  and  _338
REMARK  124  A    between atoms: _341  and  _343
REMARK  125  A    between atoms: _343  and  _344
REMARK  126  A    between atoms: _346  and  _348
REMARK  127  A    between atoms: _348  and  _349
REMARK  128  A    between atoms: _348  and  _351
REMARK  129  A    between atoms: _351  and  _352
REMARK  130  A    between atoms: _355  and  _357
REMARK  131  A    between atoms: _357  and  _358
REMARK  132  A    between atoms: _357  and  _360
REMARK  133  A    between atoms: _360  and  _361
REMARK  134  A    between atoms: _364  and  _366
REMARK  135  A    between atoms: _366  and  _367
REMARK  136  A    between atoms: _366  and  _369
REMARK  137  A    between atoms: _369  and  _370
REMARK  138  A    between atoms: _370  and  _371
REMARK  139  A    between atoms: _371  and  _372
REMARK  140  A    between atoms: _381  and  _383
REMARK  141  A    between atoms: _383  and  _384
REMARK  142  A    between atoms: _383  and  _386
REMARK  143  A    between atoms: _386  and  _387
REMARK  144  A    between atoms: _390  and  _392
REMARK  145  A    between atoms: _392  and  _393
REMARK  146  A    between atoms: _392  and  _395
REMARK  147  A    between atoms: _395  and  _396
REMARK  148  A    between atoms: _399  and  _401
REMARK  149  A    between atoms: _401  and  _402
REMARK  150  A    between atoms: _405  and  _407
REMARK  151  A    between atoms: _407  and  _408
REMARK  152  A    between atoms: _407  and  _410
REMARK  153  A    between atoms: _410  and  _411
REMARK  154  A    between atoms: _413  and  _415
REMARK  155  A    between atoms: _415  and  _416
REMARK  156  A    between atoms: _415  and  _418
REMARK  157  A    between atoms: _418  and  _419
REMARK  158  A    between atoms: _419  and  _420
REMARK  159  A    between atoms: _420  and  _421
REMARK  160  A    between atoms: _421  and  _422
REMARK  161  A    between atoms: _426  and  _428
REMARK  162  A    between atoms: _428  and  _429
REMARK  163  A    between atoms: _428  and  _431
REMARK  164  A    between atoms: _431  and  _432
REMARK  165  A    between atoms: _437  and  _439
REMARK  166  A    between atoms: _439  and  _440
REMARK  167  A    between atoms: _439  and  _442
REMARK  168  A    between atoms: _442  and  _443
REMARK  169  A    between atoms: _443  and  _444
REMARK  170  A    between atoms: _447  and  _449
REMARK  171  A    between atoms: _449  and  _450
REMARK  172  A    between atoms: _449  and  _452
REMARK  173  A    between atoms: _455  and  _457
REMARK  174  A    between atoms: _457  and  _458
REMARK  175  A    between atoms: _457  and  _460
REMARK  176  A    between atoms: _460  and  _461
REMARK  177  A    between atoms: _464  and  _466
REMARK  178  A    between atoms: _466  and  _467
REMARK  179  A    between atoms: _466  and  _469
REMARK  180  A    between atoms: _469  and  _470
REMARK  181  A    between atoms: _473  and  _475
REMARK  182  A    between atoms: _475  and  _476
REMARK  183  A    between atoms: _475  and  _478
REMARK  184  A    between atoms: _478  and  _479
REMARK  185  A    between atoms: _482  and  _484
REMARK  186  A    between atoms: _484  and  _485
REMARK  187  A    between atoms: _487  and  _489
REMARK  188  A    between atoms: _489  and  _490
REMARK  189  A    between atoms: _492  and  _494
REMARK  190  A    between atoms: _494  and  _495
REMARK  191  A    between atoms: _494  and  _497
REMARK  192  A    between atoms: _497  and  _498
REMARK  193  A    between atoms: _498  and  _499
REMARK  194  A    between atoms: _502  and  _504
REMARK  195  A    between atoms: _504  and  _505
REMARK  196  A    between atoms: _504  and  _507
REMARK  197  A    between atoms: _507  and  _508
REMARK  198  A    between atoms: _511  and  _513
REMARK  199  A    between atoms: _513  and  _514
REMARK  200  A    between atoms: _513  and  _516
REMARK  201  A    between atoms: _516  and  _517
REMARK  202  A    between atoms: _523  and  _525
REMARK  203  A    between atoms: _525  and  _526
REMARK  204  A    between atoms: _525  and  _528
REMARK  205  A    between atoms: _528  and  _529
REMARK  206  A    between atoms: _534  and  _536
REMARK  207  A    between atoms: _536  and  _537
REMARK  208  A    between atoms: _536  and  _539
REMARK  209  A    between atoms: _539  and  _540
REMARK  210  A    between atoms: _545  and  _547
REMARK  211  A    between atoms: _547  and  _548
REMARK  212  A    between atoms: _547  and  _550
REMARK  213  A    between atoms: _550  and  _551
REMARK  214  A    between atoms: _554  and  _556
REMARK  215  A    between atoms: _556  and  _557
REMARK  216  A    between atoms: _556  and  _559
REMARK  217  A    between atoms: _559  and  _560
REMARK  218  A    between atoms: _565  and  _567
REMARK  219  A    between atoms: _567  and  _568
REMARK  220  A    between atoms: _567  and  _570
REMARK  221  A    between atoms: _570  and  _571
REMARK  222  A    between atoms: _571  and  _572
REMARK  223  A    between atoms: _572  and  _573
REMARK  224  A    between atoms: _582  and  _584
REMARK  225  A    between atoms: _584  and  _585
REMARK  226  A    between atoms: _587  and  _589
REMARK  227  A    between atoms: _589  and  _590
REMARK  228  A    between atoms: _589  and  _592
REMARK  229  A    between atoms: _592  and  _593
REMARK  230  A    between atoms: _598  and  _600
REMARK  231  A    between atoms: _600  and  _601
REMARK  232  A    between atoms: _603  and  _605
REMARK  233  A    between atoms: _605  and  _606
REMARK  234  A    between atoms: _609  and  _611
REMARK  235  A    between atoms: _611  and  _612
REMARK  236  A    between atoms: _614  and  _616
REMARK  237  A    between atoms: _616  and  _617
REMARK  238  A    between atoms: _619  and  _621
REMARK  239  A    between atoms: _621  and  _622
REMARK  240  A    between atoms: _621  and  _624
REMARK  241  A    between atoms: _624  and  _625
REMARK  242  A    between atoms: _625  and  _626
REMARK  243  A    between atoms: _626  and  _627
REMARK  244  A    between atoms: _636  and  _638
REMARK  245  A    between atoms: _638  and  _639
REMARK  246  A    between atoms: _638  and  _641
REMARK  247  A    between atoms: _641  and  _642
REMARK  248  A    between atoms: _645  and  _647
REMARK  249  A    between atoms: _647  and  _648
REMARK  250  A    between atoms: _647  and  _650
REMARK  251  A    between atoms: _650  and  _651
REMARK                            x       y       z     vdW  Elec       q    Type
REMARK                         _______ _______ _______ _____ _____    ______ ____
ROOT
ATOM      1  O   HOH     1      16.835  24.460  46.224  0.00  0.00    +0.000 OA
ENDROOT
TORSDOF 0
REMARK  Name = ../refined-set-2016/1xd0/1xd0_pocket.pdb
REMARK  251 active torsions:
REMARK  status: ('A' for Active; 'I' for Inactive)
REMARK    1  A    between atoms: _1  and  _3
REMARK    2  A    between atoms: _3  and  _4
REMARK    3  A    between atoms: _3  and  _6
REMARK    4  A    between atoms: _6  and  _7
REMARK    5  A    between atoms: _13  and  _15
REMARK    6  A    between atoms: _15  and  _16
REMARK    7  A    between atoms: _15  and  _18
REMARK    8  A    between atoms: _18  and  _19
REMARK    9  A    between atoms: _19  and  _20
REMARK   10  A    between atoms: _26  and  _27
REMARK   11  A    between atoms: _32  and  _34
REMARK   12  A    between atoms: _34  and  _35
REMARK   13  A    between atoms: _34  and  _37
REMARK   14  A    between atoms: _37  and  _38
REMARK   15  A    between atoms: _43  and  _45
REMARK   16  A    between atoms: _45  and  _46
REMARK   17  A    between atoms: _45  and  _48
REMARK   18  A    between atoms: _51  and  _53
REMARK   19  A    between atoms: _53  and  _54
REMARK   20  A    between atoms: _53  and  _56
REMARK   21  A    between atoms: _56  and  _57
REMARK   22  A    between atoms: _61  and  _62
REMARK   23  A    between atoms: _68  and  _69
REMARK   24  A    between atoms: _74  and  _76
REMARK   25  A    between atoms: _76  and  _77
REMARK   26  A    between atoms: _76  and  _79
REMARK   27  A    between atoms: _79  and  _80
REMARK   28  A    between atoms: _90  and  _92
REMARK   29  A    between atoms: _92  and  _93
REMARK   30  A    between atoms: _92  and  _95
REMARK   31  A    between atoms: _95  and  _96
REMARK   32  A    between atoms: _106  and  _108
REMARK   33  A    between atoms: _108  and  _109
REMARK   34  A    between atoms: _108  and  _111
REMARK   35  A    between atoms: _111  and  _112
REMARK   36  A    between atoms: _112  and  _113
REMARK   37  A    between atoms: _116  and  _118
REMARK   38  A    between atoms: _118  and  _119
REMARK   39  A    between atoms: _118  and  _121
REMARK   40  A    between atoms: _121  and  _122
REMARK   41  A    between atoms: _122  and  _123
REMARK   42  A    between atoms: _123  and  _124
REMARK   43  A    between atoms: _133  and  _135
REMARK   44  A    between atoms: _135  and  _136
REMARK   45  A    between atoms: _135  and  _138
REMARK   46  A    between atoms: _138  and  _139
REMARK   47  A    between atoms: _144  and  _145
REMARK   48  A    between atoms: _147  and  _149
REMARK   49  A    between atoms: _149  and  _150
REMARK   50  A    between atoms: _149  and  _152
REMARK   51  A    between atoms: _152  and  _153
REMARK   52  A    between atoms: _153  and  _154
REMARK   53  A    between atoms: _160  and  _161
REMARK   54  A    between atoms: _166  and  _168
REMARK   55  A    between atoms: _168  and  _169
REMARK   56  A    between atoms: _168  and  _171
REMARK   57  A    between atoms: _171  and  _172
REMARK   58  A    between atoms: _175  and  _177
REMARK   59  A    between atoms: _177  and  _178
REMARK   60  A    between atoms: _181  and  _183
REMARK   61  A    between atoms: _183  and  _184
REMARK   62  A    between atoms: _183  and  _186
REMARK   63  A    between atoms: _189  and  _191
REMARK   64  A    between atoms: _191  and  _192
REMARK   65  A    between atoms: _191  and  _194
REMARK   66  A    between atoms: _194  and  _195
REMARK   67  A    between atoms: _198  and  _200
REMARK   68  A    between atoms: _200  and  _201
REMARK   69  A    between atoms: _200  and  _203
REMARK   70  A    between atoms: _203  and  _204
REMARK   71  A    between atoms: _209  and  _211
REMARK   72  A    between atoms: _211  and  _212
REMARK   73  A    between atoms: _211  and  _214
REMARK   74  A    between atoms: _214  and  _215
REMARK   75  A    between atoms: _220  and  _222
REMARK   76  A    between atoms: _222  and  _223
REMARK   77  A    between atoms: _222  and  _225
REMARK   78  A    between atoms: _225  and  _226
REMARK   79  A    between atoms: _226  and  _227
REMARK   80  A    between atoms: _229  and  _231
REMARK   81  A    between atoms: _231  and  _232
REMARK   82  A    between atoms: _231  and  _234
REMARK   83  A    between atoms: _236  and  _238
REMARK   84  A    between atoms: _238  and  _239
REMARK   85  A    between atoms: _241  and  _243
REMARK   86  A    between atoms: _243  and  _244
REMARK   87  A    between atoms: _243  and  _246
REMARK   88  A    between atoms: _246  and  _247
REMARK   89  A    between atoms: _252  and  _254
REMARK   90  A    between atoms: _254  and  _255
REMARK   91  A    between atoms: _258  and  _260
REMARK   92  A    between atoms: _260  and  _261
REMARK   93  A    between atoms: _260  and  _263
REMARK   94  A    between atoms: _266  and  _268
REMARK   95  A    between atoms: _268  and  _269
REMARK   96  A    between atoms: _268  and  _271
REMARK   97  A    between atoms: _271  and  _272
REMARK   98  A    between atoms: _275  and  _277
REMARK   99  A    between atoms: _277  and  _278
REMARK  100  A    between atoms: _277  and  _280
REMARK  101  A    between atoms: _280  and  _281
REMARK  102  A    between atoms: _284  and  _286
REMARK  103  A    between atoms: _286  and  _287
REMARK  104  A    between atoms: _286  and  _289
REMARK  105  A    between atoms: _289  and  _290
REMARK  106  A    between atoms: _295  and  _296
REMARK  107  A    between atoms: _298  and  _300
REMARK  108  A    between atoms: _300  and  _301
REMARK  109  A    between atoms: _300  and  _303
REMARK  110  A    between atoms: _306  and  _308
REMARK  111  A    between atoms: _308  and  _309
REMARK  112  A    between atoms: _308  and  _311
REMARK  113  A    between atoms: _311  and  _312
REMARK  114  A    between atoms: _312  and  _313
REMARK  115  A    between atoms: _313  and  _314
REMARK  116  A    between atoms: _323  and  _325
REMARK  117  A    between atoms: _325  and  _326
REMARK  118  A    between atoms: _325  and  _328
REMARK  119  A    between atoms: _328  and  _329
REMARK  120  A    between atoms: _332  and  _334
REMARK  121  A    between atoms: _334  and  _335
REMARK  122  A    between atoms: _334  and  _337
REMARK  123  A    between atoms: _337  and  _338
REMARK  124  A    between atoms: _341  and  _343
REMARK  125  A    between atoms: _343  and  _344
REMARK  126  A    between atoms: _346  and  _348
REMARK  127  A    between atoms: _348  and  _349
REMARK  128  A    between atoms: _348  and  _351
REMARK  129  A    between atoms: _351  and  _352
REMARK  130  A    between atoms: _355  and  _357
REMARK  131  A    between atoms: _357  and  _358
REMARK  132  A    between atoms: _357  and  _360
REMARK  133  A    between atoms: _360  and  _361
REMARK  134  A    between atoms: _364  and  _366
REMARK  135  A    between atoms: _366  and  _367
REMARK  136  A    between atoms: _366  and  _369
REMARK  137  A    between atoms: _369  and  _370
REMARK  138  A    between atoms: _370  and  _371
REMARK  139  A    between atoms: _371  and  _372
REMARK  140  A    between atoms: _381  and  _383
REMARK  141  A    between atoms: _383  and  _384
REMARK  142  A    between atoms: _383  and  _386
REMARK  143  A    between atoms: _386  and  _387
REMARK  144  A    between atoms: _390  and  _392
REMARK  145  A    between atoms: _392  and  _393
REMARK  146  A    between atoms: _392  and  _395
REMARK  147  A    between atoms: _395  and  _396
REMARK  148  A    between atoms: _399  and  _401
REMARK  149  A    between atoms: _401  and  _402
REMARK  150  A    between atoms: _405  and  _407
REMARK  151  A    between atoms: _407  and  _408
REMARK  152  A    between atoms: _407  and  _410
REMARK  153  A    between atoms: _410  and  _411
REMARK  154  A    between atoms: _413  and  _415
REMARK  155  A    between atoms: _415  and  _416
REMARK  156  A    between atoms: _415  and  _418
REMARK  157  A    between atoms: _418  and  _419
REMARK  158  A    between atoms: _419  and  _420
REMARK  159  A    between atoms: _420  and  _421
REMARK  160  A    between atoms: _421  and  _422
REMARK  161  A    between atoms: _426  and  _428
REMARK  162  A    between atoms: _428  and  _429
REMARK  163  A    between atoms: _428  and  _431
REMARK  164  A    between atoms: _431  and  _432
REMARK  165  A    between atoms: _437  and  _439
REMARK  166  A    between atoms: _439  and  _440
REMARK  167  A    between atoms: _439  and  _442
REMARK  168  A    between atoms: _442  and  _443
REMARK  169  A    between atoms: _443  and  _444
REMARK  170  A    between atoms: _447  and  _449
REMARK  171  A    between atoms: _449  and  _450
REMARK  172  A    between atoms: _449  and  _452
REMARK  173  A    between atoms: _455  and  _457
REMARK  174  A    between atoms: _457  and  _458
REMARK  175  A    between atoms: _457  and  _460
REMARK  176  A    between atoms: _460  and  _461
REMARK  177  A    between atoms: _464  and  _466
REMARK  178  A    between atoms: _466  and  _467
REMARK  179  A    between atoms: _466  and  _469
REMARK  180  A    between atoms: _469  and  _470
REMARK  181  A    between atoms: _473  and  _475
REMARK  182  A    between atoms: _475  and  _476
REMARK  183  A    between atoms: _475  and  _478
REMARK  184  A    between atoms: _478  and  _479
REMARK  185  A    between atoms: _482  and  _484
REMARK  186  A    between atoms: _484  and  _485
REMARK  187  A    between atoms: _487  and  _489
REMARK  188  A    between atoms: _489  and  _490
REMARK  189  A    between atoms: _492  and  _494
REMARK  190  A    between atoms: _494  and  _495
REMARK  191  A    between atoms: _494  and  _497
REMARK  192  A    between atoms: _497  and  _498
REMARK  193  A    between atoms: _498  and  _499
REMARK  194  A    between atoms: _502  and  _504
REMARK  195  A    between atoms: _504  and  _505
REMARK  196  A    between atoms: _504  and  _507
REMARK  197  A    between atoms: _507  and  _508
REMARK  198  A    between atoms: _511  and  _513
REMARK  199  A    between atoms: _513  and  _514
REMARK  200  A    between atoms: _513  and  _516
REMARK  201  A    between atoms: _516  and  _517
REMARK  202  A    between atoms: _523  and  _525
REMARK  203  A    between atoms: _525  and  _526
REMARK  204  A    between atoms: _525  and  _528
REMARK  205  A    between atoms: _528  and  _529
REMARK  206  A    between atoms: _534  and  _536
REMARK  207  A    between atoms: _536  and  _537
REMARK  208  A    between atoms: _536  and  _539
REMARK  209  A    between atoms: _539  and  _540
REMARK  210  A    between atoms: _545  and  _547
REMARK  211  A    between atoms: _547  and  _548
REMARK  212  A    between atoms: _547  and  _550
REMARK  213  A    between atoms: _550  and  _551
REMARK  214  A    between atoms: _554  and  _556
REMARK  215  A    between atoms: _556  and  _557
REMARK  216  A    between atoms: _556  and  _559
REMARK  217  A    between atoms: _559  and  _560
REMARK  218  A    between atoms: _565  and  _567
REMARK  219  A    between atoms: _567  and  _568
REMARK  220  A    between atoms: _567  and  _570
REMARK  221  A    between atoms: _570  and  _571
REMARK  222  A    between atoms: _571  and  _572
REMARK  223  A    between atoms: _572  and  _573
REMARK  224  A    between atoms: _582  and  _584
REMARK  225  A    between atoms: _584  and  _585
REMARK  226  A    between atoms: _587  and  _589
REMARK  227  A    between atoms: _589  and  _590
REMARK  228  A    between atoms: _589  and  _592
REMARK  229  A    between atoms: _592  and  _593
REMARK  230  A    between atoms: _598  and  _600
REMARK  231  A    between atoms: _600  and  _601
REMARK  232  A    between atoms: _603  and  _605
REMARK  233  A    between atoms: _605  and  _606
REMARK  234  A    between atoms: _609  and  _611
REMARK  235  A    between atoms: _611  and  _612
REMARK  236  A    between atoms: _614  and  _616
REMARK  237  A    between atoms: _616  and  _617
REMARK  238  A    between atoms: _619  and  _621
REMARK  239  A    between atoms: _621  and  _622
REMARK  240  A    between atoms: _621  and  _624
REMARK  241  A    between atoms: _624  and  _625
REMARK  242  A    between atoms: _625  and  _626
REMARK  243  A    between atoms: _626  and  _627
REMARK  244  A    between atoms: _636  and  _638
REMARK  245  A    between atoms: _638  and  _639
REMARK  246  A    between atoms: _638  and  _641
REMARK  247  A    between atoms: _641  and  _642
REMARK  248  A    between atoms: _645  and  _647
REMARK  249  A    between atoms: _647  and  _648
REMARK  250  A    between atoms: _647  and  _650
REMARK  251  A    between atoms: _650  and  _651
REMARK                            x       y       z     vdW  Elec       q    Type
REMARK                         _______ _______ _______ _____ _____    ______ ____
ROOT
ATOM      1  O   HOH     1       8.765   8.383  37.893  0.00  0.00    +0.000 OA
ENDROOT
TORSDOF 0
REMARK  Name = ../refined-set-2016/1xd0/1xd0_pocket.pdb
REMARK  251 active torsions:
REMARK  status: ('A' for Active; 'I' for Inactive)
REMARK    1  A    between atoms: _1  and  _3
REMARK    2  A    between atoms: _3  and  _4
REMARK    3  A    between atoms: _3  and  _6
REMARK    4  A    between atoms: _6  and  _7
REMARK    5  A    between atoms: _13  and  _15
REMARK    6  A    between atoms: _15  and  _16
REMARK    7  A    between atoms: _15  and  _18
REMARK    8  A    between atoms: _18  and  _19
REMARK    9  A    between atoms: _19  and  _20
REMARK   10  A    between atoms: _26  and  _27
REMARK   11  A    between atoms: _32  and  _34
REMARK   12  A    between atoms: _34  and  _35
REMARK   13  A    between atoms: _34  and  _37
REMARK   14  A    between atoms: _37  and  _38
REMARK   15  A    between atoms: _43  and  _45
REMARK   16  A    between atoms: _45  and  _46
REMARK   17  A    between atoms: _45  and  _48
REMARK   18  A    between atoms: _51  and  _53
REMARK   19  A    between atoms: _53  and  _54
REMARK   20  A    between atoms: _53  and  _56
REMARK   21  A    between atoms: _56  and  _57
REMARK   22  A    between atoms: _61  and  _62
REMARK   23  A    between atoms: _68  and  _69
REMARK   24  A    between atoms: _74  and  _76
REMARK   25  A    between atoms: _76  and  _77
REMARK   26  A    between atoms: _76  and  _79
REMARK   27  A    between atoms: _79  and  _80
REMARK   28  A    between atoms: _90  and  _92
REMARK   29  A    between atoms: _92  and  _93
REMARK   30  A    between atoms: _92  and  _95
REMARK   31  A    between atoms: _95  and  _96
REMARK   32  A    between atoms: _106  and  _108
REMARK   33  A    between atoms: _108  and  _109
REMARK   34  A    between atoms: _108  and  _111
REMARK   35  A    between atoms: _111  and  _112
REMARK   36  A    between atoms: _112  and  _113
REMARK   37  A    between atoms: _116  and  _118
REMARK   38  A    between atoms: _118  and  _119
REMARK   39  A    between atoms: _118  and  _121
REMARK   40  A    between atoms: _121  and  _122
REMARK   41  A    between atoms: _122  and  _123
REMARK   42  A    between atoms: _123  and  _124
REMARK   43  A    between atoms: _133  and  _135
REMARK   44  A    between atoms: _135  and  _136
REMARK   45  A    between atoms: _135  and  _138
REMARK   46  A    between atoms: _138  and  _139
REMARK   47  A    between atoms: _144  and  _145
REMARK   48  A    between atoms: _147  and  _149
REMARK   49  A    between atoms: _149  and  _150
REMARK   50  A    between atoms: _149  and  _152
REMARK   51  A    between atoms: _152  and  _153
REMARK   52  A    between atoms: _153  and  _154
REMARK   53  A    between atoms: _160  and  _161
REMARK   54  A    between atoms: _166  and  _168
REMARK   55  A    between atoms: _168  and  _169
REMARK   56  A    between atoms: _168  and  _171
REMARK   57  A    between atoms: _171  and  _172
REMARK   58  A    between atoms: _175  and  _177
REMARK   59  A    between atoms: _177  and  _178
REMARK   60  A    between atoms: _181  and  _183
REMARK   61  A    between atoms: _183  and  _184
REMARK   62  A    between atoms: _183  and  _186
REMARK   63  A    between atoms: _189  and  _191
REMARK   64  A    between atoms: _191  and  _192
REMARK   65  A    between atoms: _191  and  _194
REMARK   66  A    between atoms: _194  and  _195
REMARK   67  A    between atoms: _198  and  _200
REMARK   68  A    between atoms: _200  and  _201
REMARK   69  A    between atoms: _200  and  _203
REMARK   70  A    between atoms: _203  and  _204
REMARK   71  A    between atoms: _209  and  _211
REMARK   72  A    between atoms: _211  and  _212
REMARK   73  A    between atoms: _211  and  _214
REMARK   74  A    between atoms: _214  and  _215
REMARK   75  A    between atoms: _220  and  _222
REMARK   76  A    between atoms: _222  and  _223
REMARK   77  A    between atoms: _222  and  _225
REMARK   78  A    between atoms: _225  and  _226
REMARK   79  A    between atoms: _226  and  _227
REMARK   80  A    between atoms: _229  and  _231
REMARK   81  A    between atoms: _231  and  _232
REMARK   82  A    between atoms: _231  and  _234
REMARK   83  A    between atoms: _236  and  _238
REMARK   84  A    between atoms: _238  and  _239
REMARK   85  A    between atoms: _241  and  _243
REMARK   86  A    between atoms: _243  and  _244
REMARK   87  A    between atoms: _243  and  _246
REMARK   88  A    between atoms: _246  and  _247
REMARK   89  A    between atoms: _252  and  _254
REMARK   90  A    between atoms: _254  and  _255
REMARK   91  A    between atoms: _258  and  _260
REMARK   92  A    between atoms: _260  and  _261
REMARK   93  A    between atoms: _260  and  _263
REMARK   94  A    between atoms: _266  and  _268
REMARK   95  A    between atoms: _268  and  _269
REMARK   96  A    between atoms: _268  and  _271
REMARK   97  A    between atoms: _271  and  _272
REMARK   98  A    between atoms: _275  and  _277
REMARK   99  A    between atoms: _277  and  _278
REMARK  100  A    between atoms: _277  and  _280
REMARK  101  A    between atoms: _280  and  _281
REMARK  102  A    between atoms: _284  and  _286
REMARK  103  A    between atoms: _286  and  _287
REMARK  104  A    between atoms: _286  and  _289
REMARK  105  A    between atoms: _289  and  _290
REMARK  106  A    between atoms: _295  and  _296
REMARK  107  A    between atoms: _298  and  _300
REMARK  108  A    between atoms: _300  and  _301
REMARK  109  A    between atoms: _300  and  _303
REMARK  110  A    between atoms: _306  and  _308
REMARK  111  A    between atoms: _308  and  _309
REMARK  112  A    between atoms: _308  and  _311
REMARK  113  A    between atoms: _311  and  _312
REMARK  114  A    between atoms: _312  and  _313
REMARK  115  A    between atoms: _313  and  _314
REMARK  116  A    between atoms: _323  and  _325
REMARK  117  A    between atoms: _325  and  _326
REMARK  118  A    between atoms: _325  and  _328
REMARK  119  A    between atoms: _328  and  _329
REMARK  120  A    between atoms: _332  and  _334
REMARK  121  A    between atoms: _334  and  _335
REMARK  122  A    between atoms: _334  and  _337
REMARK  123  A    between atoms: _337  and  _338
REMARK  124  A    between atoms: _341  and  _343
REMARK  125  A    between atoms: _343  and  _344
REMARK  126  A    between atoms: _346  and  _348
REMARK  127  A    between atoms: _348  and  _349
REMARK  128  A    between atoms: _348  and  _351
REMARK  129  A    between atoms: _351  and  _352
REMARK  130  A    between atoms: _355  and  _357
REMARK  131  A    between atoms: _357  and  _358
REMARK  132  A    between atoms: _357  and  _360
REMARK  133  A    between atoms: _360  and  _361
REMARK  134  A    between atoms: _364  and  _366
REMARK  135  A    between atoms: _366  and  _367
REMARK  136  A    between atoms: _366  and  _369
REMARK  137  A    between atoms: _369  and  _370
REMARK  138  A    between atoms: _370  and  _371
REMARK  139  A    between atoms: _371  and  _372
REMARK  140  A    between atoms: _381  and  _383
REMARK  141  A    between atoms: _383  and  _384
REMARK  142  A    between atoms: _383  and  _386
REMARK  143  A    between atoms: _386  and  _387
REMARK  144  A    between atoms: _390  and  _392
REMARK  145  A    between atoms: _392  and  _393
REMARK  146  A    between atoms: _392  and  _395
REMARK  147  A    between atoms: _395  and  _396
REMARK  148  A    between atoms: _399  and  _401
REMARK  149  A    between atoms: _401  and  _402
REMARK  150  A    between atoms: _405  and  _407
REMARK  151  A    between atoms: _407  and  _408
REMARK  152  A    between atoms: _407  and  _410
REMARK  153  A    between atoms: _410  and  _411
REMARK  154  A    between atoms: _413  and  _415
REMARK  155  A    between atoms: _415  and  _416
REMARK  156  A    between atoms: _415  and  _418
REMARK  157  A    between atoms: _418  and  _419
REMARK  158  A    between atoms: _419  and  _420
REMARK  159  A    between atoms: _420  and  _421
REMARK  160  A    between atoms: _421  and  _422
REMARK  161  A    between atoms: _426  and  _428
REMARK  162  A    between atoms: _428  and  _429
REMARK  163  A    between atoms: _428  and  _431
REMARK  164  A    between atoms: _431  and  _432
REMARK  165  A    between atoms: _437  and  _439
REMARK  166  A    between atoms: _439  and  _440
REMARK  167  A    between atoms: _439  and  _442
REMARK  168  A    between atoms: _442  and  _443
REMARK  169  A    between atoms: _443  and  _444
REMARK  170  A    between atoms: _447  and  _449
REMARK  171  A    between atoms: _449  and  _450
REMARK  172  A    between atoms: _449  and  _452
REMARK  173  A    between atoms: _455  and  _457
REMARK  174  A    between atoms: _457  and  _458
REMARK  175  A    between atoms: _457  and  _460
REMARK  176  A    between atoms: _460  and  _461
REMARK  177  A    between atoms: _464  and  _466
REMARK  178  A    between atoms: _466  and  _467
REMARK  179  A    between atoms: _466  and  _469
REMARK  180  A    between atoms: _469  and  _470
REMARK  181  A    between atoms: _473  and  _475
REMARK  182  A    between atoms: _475  and  _476
REMARK  183  A    between atoms: _475  and  _478
REMARK  184  A    between atoms: _478  and  _479
REMARK  185  A    between atoms: _482  and  _484
REMARK  186  A    between atoms: _484  and  _485
REMARK  187  A    between atoms: _487  and  _489
REMARK  188  A    between atoms: _489  and  _490
REMARK  189  A    between atoms: _492  and  _494
REMARK  190  A    between atoms: _494  and  _495
REMARK  191  A    between atoms: _494  and  _497
REMARK  192  A    between atoms: _497  and  _498
REMARK  193  A    between atoms: _498  and  _499
REMARK  194  A    between atoms: _502  and  _504
REMARK  195  A    between atoms: _504  and  _505
REMARK  196  A    between atoms: _504  and  _507
REMARK  197  A    between atoms: _507  and  _508
REMARK  198  A    between atoms: _511  and  _513
REMARK  199  A    between atoms: _513  and  _514
REMARK  200  A    between atoms: _513  and  _516
REMARK  201  A    between atoms: _516  and  _517
REMARK  202  A    between atoms: _523  and  _525
REMARK  203  A    between atoms: _525  and  _526
REMARK  204  A    between atoms: _525  and  _528
REMARK  205  A    between atoms: _528  and  _529
REMARK  206  A    between atoms: _534  and  _536
REMARK  207  A    between atoms: _536  and  _537
REMARK  208  A    between atoms: _536  and  _539
REMARK  209  A    between atoms: _539  and  _540
REMARK  210  A    between atoms: _545  and  _547
REMARK  211  A    between atoms: _547  and  _548
REMARK  212  A    between atoms: _547  and  _550
REMARK  213  A    between atoms: _550  and  _551
REMARK  214  A    between atoms: _554  and  _556
REMARK  215  A    between atoms: _556  and  _557
REMARK  216  A    between atoms: _556  and  _559
REMARK  217  A    between atoms: _559  and  _560
REMARK  218  A    between atoms: _565  and  _567
REMARK  219  A    between atoms: _567  and  _568
REMARK  220  A    between atoms: _567  and  _570
REMARK  221  A    between atoms: _570  and  _571
REMARK  222  A    between atoms: _571  and  _572
REMARK  223  A    between atoms: _572  and  _573
REMARK  224  A    between atoms: _582  and  _584
REMARK  225  A    between atoms: _584  and  _585
REMARK  226  A    between atoms: _587  and  _589
REMARK  227  A    between atoms: _589  and  _590
REMARK  228  A    between atoms: _589  and  _592
REMARK  229  A    between atoms: _592  and  _593
REMARK  230  A    between atoms: _598  and  _600
REMARK  231  A    between atoms: _600  and  _601
REMARK  232  A    between atoms: _603  and  _605
REMARK  233  A    between atoms: _605  and  _606
REMARK  234  A    between atoms: _609  and  _611
REMARK  235  A    between atoms: _611  and  _612
REMARK  236  A    between atoms: _614  and  _616
REMARK  237  A    between atoms: _616  and  _617
REMARK  238  A    between atoms: _619  and  _621
REMARK  239  A    between atoms: _621  and  _622
REMARK  240  A    between atoms: _621  and  _624
REMARK  241  A    between atoms: _624  and  _625
REMARK  242  A    between atoms: _625  and  _626
REMARK  243  A    between atoms: _626  and  _627
REMARK  244  A    between atoms: _636  and  _638
REMARK  245  A    between atoms: _638  and  _639
REMARK  246  A    between atoms: _638  and  _641
REMARK  247  A    between atoms: _641  and  _642
REMARK  248  A    between atoms: _645  and  _647
REMARK  249  A    between atoms: _647  and  _648
REMARK  250  A    between atoms: _647  and  _650
REMARK  251  A    between atoms: _650  and  _651
REMARK                            x       y       z     vdW  Elec       q    Type
REMARK                         _______ _______ _______ _____ _____    ______ ____
ROOT
ATOM      1  O   HOH     1      14.407  20.711  33.757  0.00  0.00    +0.000 OA
ENDROOT
TORSDOF 0
REMARK  Name = ../refined-set-2016/1xd0/1xd0_pocket.pdb
REMARK  251 active torsions:
REMARK  status: ('A' for Active; 'I' for Inactive)
REMARK    1  A    between atoms: _1  and  _3
REMARK    2  A    between atoms: _3  and  _4
REMARK    3  A    between atoms: _3  and  _6
REMARK    4  A    between atoms: _6  and  _7
REMARK    5  A    between atoms: _13  and  _15
REMARK    6  A    between atoms: _15  and  _16
REMARK    7  A    between atoms: _15  and  _18
REMARK    8  A    between atoms: _18  and  _19
REMARK    9  A    between atoms: _19  and  _20
REMARK   10  A    between atoms: _26  and  _27
REMARK   11  A    between atoms: _32  and  _34
REMARK   12  A    between atoms: _34  and  _35
REMARK   13  A    between atoms: _34  and  _37
REMARK   14  A    between atoms: _37  and  _38
REMARK   15  A    between atoms: _43  and  _45
REMARK   16  A    between atoms: _45  and  _46
REMARK   17  A    between atoms: _45  and  _48
REMARK   18  A    between atoms: _51  and  _53
REMARK   19  A    between atoms: _53  and  _54
REMARK   20  A    between atoms: _53  and  _56
REMARK   21  A    between atoms: _56  and  _57
REMARK   22  A    between atoms: _61  and  _62
REMARK   23  A    between atoms: _68  and  _69
REMARK   24  A    between atoms: _74  and  _76
REMARK   25  A    between atoms: _76  and  _77
REMARK   26  A    between atoms: _76  and  _79
REMARK   27  A    between atoms: _79  and  _80
REMARK   28  A    between atoms: _90  and  _92
REMARK   29  A    between atoms: _92  and  _93
REMARK   30  A    between atoms: _92  and  _95
REMARK   31  A    between atoms: _95  and  _96
REMARK   32  A    between atoms: _106  and  _108
REMARK   33  A    between atoms: _108  and  _109
REMARK   34  A    between atoms: _108  and  _111
REMARK   35  A    between atoms: _111  and  _112
REMARK   36  A    between atoms: _112  and  _113
REMARK   37  A    between atoms: _116  and  _118
REMARK   38  A    between atoms: _118  and  _119
REMARK   39  A    between atoms: _118  and  _121
REMARK   40  A    between atoms: _121  and  _122
REMARK   41  A    between atoms: _122  and  _123
REMARK   42  A    between atoms: _123  and  _124
REMARK   43  A    between atoms: _133  and  _135
REMARK   44  A    between atoms: _135  and  _136
REMARK   45  A    between atoms: _135  and  _138
REMARK   46  A    between atoms: _138  and  _139
REMARK   47  A    between atoms: _144  and  _145
REMARK   48  A    between atoms: _147  and  _149
REMARK   49  A    between atoms: _149  and  _150
REMARK   50  A    between atoms: _149  and  _152
REMARK   51  A    between atoms: _152  and  _153
REMARK   52  A    between atoms: _153  and  _154
REMARK   53  A    between atoms: _160  and  _161
REMARK   54  A    between atoms: _166  and  _168
REMARK   55  A    between atoms: _168  and  _169
REMARK   56  A    between atoms: _168  and  _171
REMARK   57  A    between atoms: _171  and  _172
REMARK   58  A    between atoms: _175  and  _177
REMARK   59  A    between atoms: _177  and  _178
REMARK   60  A    between atoms: _181  and  _183
REMARK   61  A    between atoms: _183  and  _184
REMARK   62  A    between atoms: _183  and  _186
REMARK   63  A    between atoms: _189  and  _191
REMARK   64  A    between atoms: _191  and  _192
REMARK   65  A    between atoms: _191  and  _194
REMARK   66  A    between atoms: _194  and  _195
REMARK   67  A    between atoms: _198  and  _200
REMARK   68  A    between atoms: _200  and  _201
REMARK   69  A    between atoms: _200  and  _203
REMARK   70  A    between atoms: _203  and  _204
REMARK   71  A    between atoms: _209  and  _211
REMARK   72  A    between atoms: _211  and  _212
REMARK   73  A    between atoms: _211  and  _214
REMARK   74  A    between atoms: _214  and  _215
REMARK   75  A    between atoms: _220  and  _222
REMARK   76  A    between atoms: _222  and  _223
REMARK   77  A    between atoms: _222  and  _225
REMARK   78  A    between atoms: _225  and  _226
REMARK   79  A    between atoms: _226  and  _227
REMARK   80  A    between atoms: _229  and  _231
REMARK   81  A    between atoms: _231  and  _232
REMARK   82  A    between atoms: _231  and  _234
REMARK   83  A    between atoms: _236  and  _238
REMARK   84  A    between atoms: _238  and  _239
REMARK   85  A    between atoms: _241  and  _243
REMARK   86  A    between atoms: _243  and  _244
REMARK   87  A    between atoms: _243  and  _246
REMARK   88  A    between atoms: _246  and  _247
REMARK   89  A    between atoms: _252  and  _254
REMARK   90  A    between atoms: _254  and  _255
REMARK   91  A    between atoms: _258  and  _260
REMARK   92  A    between atoms: _260  and  _261
REMARK   93  A    between atoms: _260  and  _263
REMARK   94  A    between atoms: _266  and  _268
REMARK   95  A    between atoms: _268  and  _269
REMARK   96  A    between atoms: _268  and  _271
REMARK   97  A    between atoms: _271  and  _272
REMARK   98  A    between atoms: _275  and  _277
REMARK   99  A    between atoms: _277  and  _278
REMARK  100  A    between atoms: _277  and  _280
REMARK  101  A    between atoms: _280  and  _281
REMARK  102  A    between atoms: _284  and  _286
REMARK  103  A    between atoms: _286  and  _287
REMARK  104  A    between atoms: _286  and  _289
REMARK  105  A    between atoms: _289  and  _290
REMARK  106  A    between atoms: _295  and  _296
REMARK  107  A    between atoms: _298  and  _300
REMARK  108  A    between atoms: _300  and  _301
REMARK  109  A    between atoms: _300  and  _303
REMARK  110  A    between atoms: _306  and  _308
REMARK  111  A    between atoms: _308  and  _309
REMARK  112  A    between atoms: _308  and  _311
REMARK  113  A    between atoms: _311  and  _312
REMARK  114  A    between atoms: _312  and  _313
REMARK  115  A    between atoms: _313  and  _314
REMARK  116  A    between atoms: _323  and  _325
REMARK  117  A    between atoms: _325  and  _326
REMARK  118  A    between atoms: _325  and  _328
REMARK  119  A    between atoms: _328  and  _329
REMARK  120  A    between atoms: _332  and  _334
REMARK  121  A    between atoms: _334  and  _335
REMARK  122  A    between atoms: _334  and  _337
REMARK  123  A    between atoms: _337  and  _338
REMARK  124  A    between atoms: _341  and  _343
REMARK  125  A    between atoms: _343  and  _344
REMARK  126  A    between atoms: _346  and  _348
REMARK  127  A    between atoms: _348  and  _349
REMARK  128  A    between atoms: _348  and  _351
REMARK  129  A    between atoms: _351  and  _352
REMARK  130  A    between atoms: _355  and  _357
REMARK  131  A    between atoms: _357  and  _358
REMARK  132  A    between atoms: _357  and  _360
REMARK  133  A    between atoms: _360  and  _361
REMARK  134  A    between atoms: _364  and  _366
REMARK  135  A    between atoms: _366  and  _367
REMARK  136  A    between atoms: _366  and  _369
REMARK  137  A    between atoms: _369  and  _370
REMARK  138  A    between atoms: _370  and  _371
REMARK  139  A    between atoms: _371  and  _372
REMARK  140  A    between atoms: _381  and  _383
REMARK  141  A    between atoms: _383  and  _384
REMARK  142  A    between atoms: _383  and  _386
REMARK  143  A    between atoms: _386  and  _387
REMARK  144  A    between atoms: _390  and  _392
REMARK  145  A    between atoms: _392  and  _393
REMARK  146  A    between atoms: _392  and  _395
REMARK  147  A    between atoms: _395  and  _396
REMARK  148  A    between atoms: _399  and  _401
REMARK  149  A    between atoms: _401  and  _402
REMARK  150  A    between atoms: _405  and  _407
REMARK  151  A    between atoms: _407  and  _408
REMARK  152  A    between atoms: _407  and  _410
REMARK  153  A    between atoms: _410  and  _411
REMARK  154  A    between atoms: _413  and  _415
REMARK  155  A    between atoms: _415  and  _416
REMARK  156  A    between atoms: _415  and  _418
REMARK  157  A    between atoms: _418  and  _419
REMARK  158  A    between atoms: _419  and  _420
REMARK  159  A    between atoms: _420  and  _421
REMARK  160  A    between atoms: _421  and  _422
REMARK  161  A    between atoms: _426  and  _428
REMARK  162  A    between atoms: _428  and  _429
REMARK  163  A    between atoms: _428  and  _431
REMARK  164  A    between atoms: _431  and  _432
REMARK  165  A    between atoms: _437  and  _439
REMARK  166  A    between atoms: _439  and  _440
REMARK  167  A    between atoms: _439  and  _442
REMARK  168  A    between atoms: _442  and  _443
REMARK  169  A    between atoms: _443  and  _444
REMARK  170  A    between atoms: _447  and  _449
REMARK  171  A    between atoms: _449  and  _450
REMARK  172  A    between atoms: _449  and  _452
REMARK  173  A    between atoms: _455  and  _457
REMARK  174  A    between atoms: _457  and  _458
REMARK  175  A    between atoms: _457  and  _460
REMARK  176  A    between atoms: _460  and  _461
REMARK  177  A    between atoms: _464  and  _466
REMARK  178  A    between atoms: _466  and  _467
REMARK  179  A    between atoms: _466  and  _469
REMARK  180  A    between atoms: _469  and  _470
REMARK  181  A    between atoms: _473  and  _475
REMARK  182  A    between atoms: _475  and  _476
REMARK  183  A    between atoms: _475  and  _478
REMARK  184  A    between atoms: _478  and  _479
REMARK  185  A    between atoms: _482  and  _484
REMARK  186  A    between atoms: _484  and  _485
REMARK  187  A    between atoms: _487  and  _489
REMARK  188  A    between atoms: _489  and  _490
REMARK  189  A    between atoms: _492  and  _494
REMARK  190  A    between atoms: _494  and  _495
REMARK  191  A    between atoms: _494  and  _497
REMARK  192  A    between atoms: _497  and  _498
REMARK  193  A    between atoms: _498  and  _499
REMARK  194  A    between atoms: _502  and  _504
REMARK  195  A    between atoms: _504  and  _505
REMARK  196  A    between atoms: _504  and  _507
REMARK  197  A    between atoms: _507  and  _508
REMARK  198  A    between atoms: _511  and  _513
REMARK  199  A    between atoms: _513  and  _514
REMARK  200  A    between atoms: _513  and  _516
REMARK  201  A    between atoms: _516  and  _517
REMARK  202  A    between atoms: _523  and  _525
REMARK  203  A    between atoms: _525  and  _526
REMARK  204  A    between atoms: _525  and  _528
REMARK  205  A    between atoms: _528  and  _529
REMARK  206  A    between atoms: _534  and  _536
REMARK  207  A    between atoms: _536  and  _537
REMARK  208  A    between atoms: _536  and  _539
REMARK  209  A    between atoms: _539  and  _540
REMARK  210  A    between atoms: _545  and  _547
REMARK  211  A    between atoms: _547  and  _548
REMARK  212  A    between atoms: _547  and  _550
REMARK  213  A    between atoms: _550  and  _551
REMARK  214  A    between atoms: _554  and  _556
REMARK  215  A    between atoms: _556  and  _557
REMARK  216  A    between atoms: _556  and  _559
REMARK  217  A    between atoms: _559  and  _560
REMARK  218  A    between atoms: _565  and  _567
REMARK  219  A    between atoms: _567  and  _568
REMARK  220  A    between atoms: _567  and  _570
REMARK  221  A    between atoms: _570  and  _571
REMARK  222  A    between atoms: _571  and  _572
REMARK  223  A    between atoms: _572  and  _573
REMARK  224  A    between atoms: _582  and  _584
REMARK  225  A    between atoms: _584  and  _585
REMARK  226  A    between atoms: _587  and  _589
REMARK  227  A    between atoms: _589  and  _590
REMARK  228  A    between atoms: _589  and  _592
REMARK  229  A    between atoms: _592  and  _593
REMARK  230  A    between atoms: _598  and  _600
REMARK  231  A    between atoms: _600  and  _601
REMARK  232  A    between atoms: _603  and  _605
REMARK  233  A    between atoms: _605  and  _606
REMARK  234  A    between atoms: _609  and  _611
REMARK  235  A    between atoms: _611  and  _612
REMARK  236  A    between atoms: _614  and  _616
REMARK  237  A    between atoms: _616  and  _617
REMARK  238  A    between atoms: _619  and  _621
REMARK  239  A    between atoms: _621  and  _622
REMARK  240  A    between atoms: _621  and  _624
REMARK  241  A    between atoms: _624  and  _625
REMARK  242  A    between atoms: _625  and  _626
REMARK  243  A    between atoms: _626  and  _627
REMARK  244  A    between atoms: _636  and  _638
REMARK  245  A    between atoms: _638  and  _639
REMARK  246  A    between atoms: _638  and  _641
REMARK  247  A    between atoms: _641  and  _642
REMARK  248  A    between atoms: _645  and  _647
REMARK  249  A    between atoms: _647  and  _648
REMARK  250  A    between atoms: _647  and  _650
REMARK  251  A    between atoms: _650  and  _651
REMARK                            x       y       z     vdW  Elec       q    Type
REMARK                         _______ _______ _______ _____ _____    ______ ____
ROOT
ATOM      1  O   HOH     1      -2.095  13.385  46.544  0.00  0.00    +0.000 OA
ENDROOT
TORSDOF 0
REMARK  Name = ../refined-set-2016/1xd0/1xd0_pocket.pdb
REMARK  251 active torsions:
REMARK  status: ('A' for Active; 'I' for Inactive)
REMARK    1  A    between atoms: _1  and  _3
REMARK    2  A    between atoms: _3  and  _4
REMARK    3  A    between atoms: _3  and  _6
REMARK    4  A    between atoms: _6  and  _7
REMARK    5  A    between atoms: _13  and  _15
REMARK    6  A    between atoms: _15  and  _16
REMARK    7  A    between atoms: _15  and  _18
REMARK    8  A    between atoms: _18  and  _19
REMARK    9  A    between atoms: _19  and  _20
REMARK   10  A    between atoms: _26  and  _27
REMARK   11  A    between atoms: _32  and  _34
REMARK   12  A    between atoms: _34  and  _35
REMARK   13  A    between atoms: _34  and  _37
REMARK   14  A    between atoms: _37  and  _38
REMARK   15  A    between atoms: _43  and  _45
REMARK   16  A    between atoms: _45  and  _46
REMARK   17  A    between atoms: _45  and  _48
REMARK   18  A    between atoms: _51  and  _53
REMARK   19  A    between atoms: _53  and  _54
REMARK   20  A    between atoms: _53  and  _56
REMARK   21  A    between atoms: _56  and  _57
REMARK   22  A    between atoms: _61  and  _62
REMARK   23  A    between atoms: _68  and  _69
REMARK   24  A    between atoms: _74  and  _76
REMARK   25  A    between atoms: _76  and  _77
REMARK   26  A    between atoms: _76  and  _79
REMARK   27  A    between atoms: _79  and  _80
REMARK   28  A    between atoms: _90  and  _92
REMARK   29  A    between atoms: _92  and  _93
REMARK   30  A    between atoms: _92  and  _95
REMARK   31  A    between atoms: _95  and  _96
REMARK   32  A    between atoms: _106  and  _108
REMARK   33  A    between atoms: _108  and  _109
REMARK   34  A    between atoms: _108  and  _111
REMARK   35  A    between atoms: _111  and  _112
REMARK   36  A    between atoms: _112  and  _113
REMARK   37  A    between atoms: _116  and  _118
REMARK   38  A    between atoms: _118  and  _119
REMARK   39  A    between atoms: _118  and  _121
REMARK   40  A    between atoms: _121  and  _122
REMARK   41  A    between atoms: _122  and  _123
REMARK   42  A    between atoms: _123  and  _124
REMARK   43  A    between atoms: _133  and  _135
REMARK   44  A    between atoms: _135  and  _136
REMARK   45  A    between atoms: _135  and  _138
REMARK   46  A    between atoms: _138  and  _139
REMARK   47  A    between atoms: _144  and  _145
REMARK   48  A    between atoms: _147  and  _149
REMARK   49  A    between atoms: _149  and  _150
REMARK   50  A    between atoms: _149  and  _152
REMARK   51  A    between atoms: _152  and  _153
REMARK   52  A    between atoms: _153  and  _154
REMARK   53  A    between atoms: _160  and  _161
REMARK   54  A    between atoms: _166  and  _168
REMARK   55  A    between atoms: _168  and  _169
REMARK   56  A    between atoms: _168  and  _171
REMARK   57  A    between atoms: _171  and  _172
REMARK   58  A    between atoms: _175  and  _177
REMARK   59  A    between atoms: _177  and  _178
REMARK   60  A    between atoms: _181  and  _183
REMARK   61  A    between atoms: _183  and  _184
REMARK   62  A    between atoms: _183  and  _186
REMARK   63  A    between atoms: _189  and  _191
REMARK   64  A    between atoms: _191  and  _192
REMARK   65  A    between atoms: _191  and  _194
REMARK   66  A    between atoms: _194  and  _195
REMARK   67  A    between atoms: _198  and  _200
REMARK   68  A    between atoms: _200  and  _201
REMARK   69  A    between atoms: _200  and  _203
REMARK   70  A    between atoms: _203  and  _204
REMARK   71  A    between atoms: _209  and  _211
REMARK   72  A    between atoms: _211  and  _212
REMARK   73  A    between atoms: _211  and  _214
REMARK   74  A    between atoms: _214  and  _215
REMARK   75  A    between atoms: _220  and  _222
REMARK   76  A    between atoms: _222  and  _223
REMARK   77  A    between atoms: _222  and  _225
REMARK   78  A    between atoms: _225  and  _226
REMARK   79  A    between atoms: _226  and  _227
REMARK   80  A    between atoms: _229  and  _231
REMARK   81  A    between atoms: _231  and  _232
REMARK   82  A    between atoms: _231  and  _234
REMARK   83  A    between atoms: _236  and  _238
REMARK   84  A    between atoms: _238  and  _239
REMARK   85  A    between atoms: _241  and  _243
REMARK   86  A    between atoms: _243  and  _244
REMARK   87  A    between atoms: _243  and  _246
REMARK   88  A    between atoms: _246  and  _247
REMARK   89  A    between atoms: _252  and  _254
REMARK   90  A    between atoms: _254  and  _255
REMARK   91  A    between atoms: _258  and  _260
REMARK   92  A    between atoms: _260  and  _261
REMARK   93  A    between atoms: _260  and  _263
REMARK   94  A    between atoms: _266  and  _268
REMARK   95  A    between atoms: _268  and  _269
REMARK   96  A    between atoms: _268  and  _271
REMARK   97  A    between atoms: _271  and  _272
REMARK   98  A    between atoms: _275  and  _277
REMARK   99  A    between atoms: _277  and  _278
REMARK  100  A    between atoms: _277  and  _280
REMARK  101  A    between atoms: _280  and  _281
REMARK  102  A    between atoms: _284  and  _286
REMARK  103  A    between atoms: _286  and  _287
REMARK  104  A    between atoms: _286  and  _289
REMARK  105  A    between atoms: _289  and  _290
REMARK  106  A    between atoms: _295  and  _296
REMARK  107  A    between atoms: _298  and  _300
REMARK  108  A    between atoms: _300  and  _301
REMARK  109  A    between atoms: _300  and  _303
REMARK  110  A    between atoms: _306  and  _308
REMARK  111  A    between atoms: _308  and  _309
REMARK  112  A    between atoms: _308  and  _311
REMARK  113  A    between atoms: _311  and  _312
REMARK  114  A    between atoms: _312  and  _313
REMARK  115  A    between atoms: _313  and  _314
REMARK  116  A    between atoms: _323  and  _325
REMARK  117  A    between atoms: _325  and  _326
REMARK  118  A    between atoms: _325  and  _328
REMARK  119  A    between atoms: _328  and  _329
REMARK  120  A    between atoms: _332  and  _334
REMARK  121  A    between atoms: _334  and  _335
REMARK  122  A    between atoms: _334  and  _337
REMARK  123  A    between atoms: _337  and  _338
REMARK  124  A    between atoms: _341  and  _343
REMARK  125  A    between atoms: _343  and  _344
REMARK  126  A    between atoms: _346  and  _348
REMARK  127  A    between atoms: _348  and  _349
REMARK  128  A    between atoms: _348  and  _351
REMARK  129  A    between atoms: _351  and  _352
REMARK  130  A    between atoms: _355  and  _357
REMARK  131  A    between atoms: _357  and  _358
REMARK  132  A    between atoms: _357  and  _360
REMARK  133  A    between atoms: _360  and  _361
REMARK  134  A    between atoms: _364  and  _366
REMARK  135  A    between atoms: _366  and  _367
REMARK  136  A    between atoms: _366  and  _369
REMARK  137  A    between atoms: _369  and  _370
REMARK  138  A    between atoms: _370  and  _371
REMARK  139  A    between atoms: _371  and  _372
REMARK  140  A    between atoms: _381  and  _383
REMARK  141  A    between atoms: _383  and  _384
REMARK  142  A    between atoms: _383  and  _386
REMARK  143  A    between atoms: _386  and  _387
REMARK  144  A    between atoms: _390  and  _392
REMARK  145  A    between atoms: _392  and  _393
REMARK  146  A    between atoms: _392  and  _395
REMARK  147  A    between atoms: _395  and  _396
REMARK  148  A    between atoms: _399  and  _401
REMARK  149  A    between atoms: _401  and  _402
REMARK  150  A    between atoms: _405  and  _407
REMARK  151  A    between atoms: _407  and  _408
REMARK  152  A    between atoms: _407  and  _410
REMARK  153  A    between atoms: _410  and  _411
REMARK  154  A    between atoms: _413  and  _415
REMARK  155  A    between atoms: _415  and  _416
REMARK  156  A    between atoms: _415  and  _418
REMARK  157  A    between atoms: _418  and  _419
REMARK  158  A    between atoms: _419  and  _420
REMARK  159  A    between atoms: _420  and  _421
REMARK  160  A    between atoms: _421  and  _422
REMARK  161  A    between atoms: _426  and  _428
REMARK  162  A    between atoms: _428  and  _429
REMARK  163  A    between atoms: _428  and  _431
REMARK  164  A    between atoms: _431  and  _432
REMARK  165  A    between atoms: _437  and  _439
REMARK  166  A    between atoms: _439  and  _440
REMARK  167  A    between atoms: _439  and  _442
REMARK  168  A    between atoms: _442  and  _443
REMARK  169  A    between atoms: _443  and  _444
REMARK  170  A    between atoms: _447  and  _449
REMARK  171  A    between atoms: _449  and  _450
REMARK  172  A    between atoms: _449  and  _452
REMARK  173  A    between atoms: _455  and  _457
REMARK  174  A    between atoms: _457  and  _458
REMARK  175  A    between atoms: _457  and  _460
REMARK  176  A    between atoms: _460  and  _461
REMARK  177  A    between atoms: _464  and  _466
REMARK  178  A    between atoms: _466  and  _467
REMARK  179  A    between atoms: _466  and  _469
REMARK  180  A    between atoms: _469  and  _470
REMARK  181  A    between atoms: _473  and  _475
REMARK  182  A    between atoms: _475  and  _476
REMARK  183  A    between atoms: _475  and  _478
REMARK  184  A    between atoms: _478  and  _479
REMARK  185  A    between atoms: _482  and  _484
REMARK  186  A    between atoms: _484  and  _485
REMARK  187  A    between atoms: _487  and  _489
REMARK  188  A    between atoms: _489  and  _490
REMARK  189  A    between atoms: _492  and  _494
REMARK  190  A    between atoms: _494  and  _495
REMARK  191  A    between atoms: _494  and  _497
REMARK  192  A    between atoms: _497  and  _498
REMARK  193  A    between atoms: _498  and  _499
REMARK  194  A    between atoms: _502  and  _504
REMARK  195  A    between atoms: _504  and  _505
REMARK  196  A    between atoms: _504  and  _507
REMARK  197  A    between atoms: _507  and  _508
REMARK  198  A    between atoms: _511  and  _513
REMARK  199  A    between atoms: _513  and  _514
REMARK  200  A    between atoms: _513  and  _516
REMARK  201  A    between atoms: _516  and  _517
REMARK  202  A    between atoms: _523  and  _525
REMARK  203  A    between atoms: _525  and  _526
REMARK  204  A    between atoms: _525  and  _528
REMARK  205  A    between atoms: _528  and  _529
REMARK  206  A    between atoms: _534  and  _536
REMARK  207  A    between atoms: _536  and  _537
REMARK  208  A    between atoms: _536  and  _539
REMARK  209  A    between atoms: _539  and  _540
REMARK  210  A    between atoms: _545  and  _547
REMARK  211  A    between atoms: _547  and  _548
REMARK  212  A    between atoms: _547  and  _550
REMARK  213  A    between atoms: _550  and  _551
REMARK  214  A    between atoms: _554  and  _556
REMARK  215  A    between atoms: _556  and  _557
REMARK  216  A    between atoms: _556  and  _559
REMARK  217  A    between atoms: _559  and  _560
REMARK  218  A    between atoms: _565  and  _567
REMARK  219  A    between atoms: _567  and  _568
REMARK  220  A    between atoms: _567  and  _570
REMARK  221  A    between atoms: _570  and  _571
REMARK  222  A    between atoms: _571  and  _572
REMARK  223  A    between atoms: _572  and  _573
REMARK  224  A    between atoms: _582  and  _584
REMARK  225  A    between atoms: _584  and  _585
REMARK  226  A    between atoms: _587  and  _589
REMARK  227  A    between atoms: _589  and  _590
REMARK  228  A    between atoms: _589  and  _592
REMARK  229  A    between atoms: _592  and  _593
REMARK  230  A    between atoms: _598  and  _600
REMARK  231  A    between atoms: _600  and  _601
REMARK  232  A    between atoms: _603  and  _605
REMARK  233  A    between atoms: _605  and  _606
REMARK  234  A    between atoms: _609  and  _611
REMARK  235  A    between atoms: _611  and  _612
REMARK  236  A    between atoms: _614  and  _616
REMARK  237  A    between atoms: _616  and  _617
REMARK  238  A    between atoms: _619  and  _621
REMARK  239  A    between atoms: _621  and  _622
REMARK  240  A    between atoms: _621  and  _624
REMARK  241  A    between atoms: _624  and  _625
REMARK  242  A    between atoms: _625  and  _626
REMARK  243  A    between atoms: _626  and  _627
REMARK  244  A    between atoms: _636  and  _638
REMARK  245  A    between atoms: _638  and  _639
REMARK  246  A    between atoms: _638  and  _641
REMARK  247  A    between atoms: _641  and  _642
REMARK  248  A    between atoms: _645  and  _647
REMARK  249  A    between atoms: _647  and  _648
REMARK  250  A    between atoms: _647  and  _650
REMARK  251  A    between atoms: _650  and  _651
REMARK                            x       y       z     vdW  Elec       q    Type
REMARK                         _______ _______ _______ _____ _____    ______ ____
ROOT
ATOM      1  O   HOH     1      18.574   8.432  36.342  0.00  0.00    +0.000 OA
ENDROOT
TORSDOF 0
REMARK  Name = ../refined-set-2016/1xd0/1xd0_pocket.pdb
REMARK  251 active torsions:
REMARK  status: ('A' for Active; 'I' for Inactive)
REMARK    1  A    between atoms: _1  and  _3
REMARK    2  A    between atoms: _3  and  _4
REMARK    3  A    between atoms: _3  and  _6
REMARK    4  A    between atoms: _6  and  _7
REMARK    5  A    between atoms: _13  and  _15
REMARK    6  A    between atoms: _15  and  _16
REMARK    7  A    between atoms: _15  and  _18
REMARK    8  A    between atoms: _18  and  _19
REMARK    9  A    between atoms: _19  and  _20
REMARK   10  A    between atoms: _26  and  _27
REMARK   11  A    between atoms: _32  and  _34
REMARK   12  A    between atoms: _34  and  _35
REMARK   13  A    between atoms: _34  and  _37
REMARK   14  A    between atoms: _37  and  _38
REMARK   15  A    between atoms: _43  and  _45
REMARK   16  A    between atoms: _45  and  _46
REMARK   17  A    between atoms: _45  and  _48
REMARK   18  A    between atoms: _51  and  _53
REMARK   19  A    between atoms: _53  and  _54
REMARK   20  A    between atoms: _53  and  _56
REMARK   21  A    between atoms: _56  and  _57
REMARK   22  A    between atoms: _61  and  _62
REMARK   23  A    between atoms: _68  and  _69
REMARK   24  A    between atoms: _74  and  _76
REMARK   25  A    between atoms: _76  and  _77
REMARK   26  A    between atoms: _76  and  _79
REMARK   27  A    between atoms: _79  and  _80
REMARK   28  A    between atoms: _90  and  _92
REMARK   29  A    between atoms: _92  and  _93
REMARK   30  A    between atoms: _92  and  _95
REMARK   31  A    between atoms: _95  and  _96
REMARK   32  A    between atoms: _106  and  _108
REMARK   33  A    between atoms: _108  and  _109
REMARK   34  A    between atoms: _108  and  _111
REMARK   35  A    between atoms: _111  and  _112
REMARK   36  A    between atoms: _112  and  _113
REMARK   37  A    between atoms: _116  and  _118
REMARK   38  A    between atoms: _118  and  _119
REMARK   39  A    between atoms: _118  and  _121
REMARK   40  A    between atoms: _121  and  _122
REMARK   41  A    between atoms: _122  and  _123
REMARK   42  A    between atoms: _123  and  _124
REMARK   43  A    between atoms: _133  and  _135
REMARK   44  A    between atoms: _135  and  _136
REMARK   45  A    between atoms: _135  and  _138
REMARK   46  A    between atoms: _138  and  _139
REMARK   47  A    between atoms: _144  and  _145
REMARK   48  A    between atoms: _147  and  _149
REMARK   49  A    between atoms: _149  and  _150
REMARK   50  A    between atoms: _149  and  _152
REMARK   51  A    between atoms: _152  and  _153
REMARK   52  A    between atoms: _153  and  _154
REMARK   53  A    between atoms: _160  and  _161
REMARK   54  A    between atoms: _166  and  _168
REMARK   55  A    between atoms: _168  and  _169
REMARK   56  A    between atoms: _168  and  _171
REMARK   57  A    between atoms: _171  and  _172
REMARK   58  A    between atoms: _175  and  _177
REMARK   59  A    between atoms: _177  and  _178
REMARK   60  A    between atoms: _181  and  _183
REMARK   61  A    between atoms: _183  and  _184
REMARK   62  A    between atoms: _183  and  _186
REMARK   63  A    between atoms: _189  and  _191
REMARK   64  A    between atoms: _191  and  _192
REMARK   65  A    between atoms: _191  and  _194
REMARK   66  A    between atoms: _194  and  _195
REMARK   67  A    between atoms: _198  and  _200
REMARK   68  A    between atoms: _200  and  _201
REMARK   69  A    between atoms: _200  and  _203
REMARK   70  A    between atoms: _203  and  _204
REMARK   71  A    between atoms: _209  and  _211
REMARK   72  A    between atoms: _211  and  _212
REMARK   73  A    between atoms: _211  and  _214
REMARK   74  A    between atoms: _214  and  _215
REMARK   75  A    between atoms: _220  and  _222
REMARK   76  A    between atoms: _222  and  _223
REMARK   77  A    between atoms: _222  and  _225
REMARK   78  A    between atoms: _225  and  _226
REMARK   79  A    between atoms: _226  and  _227
REMARK   80  A    between atoms: _229  and  _231
REMARK   81  A    between atoms: _231  and  _232
REMARK   82  A    between atoms: _231  and  _234
REMARK   83  A    between atoms: _236  and  _238
REMARK   84  A    between atoms: _238  and  _239
REMARK   85  A    between atoms: _241  and  _243
REMARK   86  A    between atoms: _243  and  _244
REMARK   87  A    between atoms: _243  and  _246
REMARK   88  A    between atoms: _246  and  _247
REMARK   89  A    between atoms: _252  and  _254
REMARK   90  A    between atoms: _254  and  _255
REMARK   91  A    between atoms: _258  and  _260
REMARK   92  A    between atoms: _260  and  _261
REMARK   93  A    between atoms: _260  and  _263
REMARK   94  A    between atoms: _266  and  _268
REMARK   95  A    between atoms: _268  and  _269
REMARK   96  A    between atoms: _268  and  _271
REMARK   97  A    between atoms: _271  and  _272
REMARK   98  A    between atoms: _275  and  _277
REMARK   99  A    between atoms: _277  and  _278
REMARK  100  A    between atoms: _277  and  _280
REMARK  101  A    between atoms: _280  and  _281
REMARK  102  A    between atoms: _284  and  _286
REMARK  103  A    between atoms: _286  and  _287
REMARK  104  A    between atoms: _286  and  _289
REMARK  105  A    between atoms: _289  and  _290
REMARK  106  A    between atoms: _295  and  _296
REMARK  107  A    between atoms: _298  and  _300
REMARK  108  A    between atoms: _300  and  _301
REMARK  109  A    between atoms: _300  and  _303
REMARK  110  A    between atoms: _306  and  _308
REMARK  111  A    between atoms: _308  and  _309
REMARK  112  A    between atoms: _308  and  _311
REMARK  113  A    between atoms: _311  and  _312
REMARK  114  A    between atoms: _312  and  _313
REMARK  115  A    between atoms: _313  and  _314
REMARK  116  A    between atoms: _323  and  _325
REMARK  117  A    between atoms: _325  and  _326
REMARK  118  A    between atoms: _325  and  _328
REMARK  119  A    between atoms: _328  and  _329
REMARK  120  A    between atoms: _332  and  _334
REMARK  121  A    between atoms: _334  and  _335
REMARK  122  A    between atoms: _334  and  _337
REMARK  123  A    between atoms: _337  and  _338
REMARK  124  A    between atoms: _341  and  _343
REMARK  125  A    between atoms: _343  and  _344
REMARK  126  A    between atoms: _346  and  _348
REMARK  127  A    between atoms: _348  and  _349
REMARK  128  A    between atoms: _348  and  _351
REMARK  129  A    between atoms: _351  and  _352
REMARK  130  A    between atoms: _355  and  _357
REMARK  131  A    between atoms: _357  and  _358
REMARK  132  A    between atoms: _357  and  _360
REMARK  133  A    between atoms: _360  and  _361
REMARK  134  A    between atoms: _364  and  _366
REMARK  135  A    between atoms: _366  and  _367
REMARK  136  A    between atoms: _366  and  _369
REMARK  137  A    between atoms: _369  and  _370
REMARK  138  A    between atoms: _370  and  _371
REMARK  139  A    between atoms: _371  and  _372
REMARK  140  A    between atoms: _381  and  _383
REMARK  141  A    between atoms: _383  and  _384
REMARK  142  A    between atoms: _383  and  _386
REMARK  143  A    between atoms: _386  and  _387
REMARK  144  A    between atoms: _390  and  _392
REMARK  145  A    between atoms: _392  and  _393
REMARK  146  A    between atoms: _392  and  _395
REMARK  147  A    between atoms: _395  and  _396
REMARK  148  A    between atoms: _399  and  _401
REMARK  149  A    between atoms: _401  and  _402
REMARK  150  A    between atoms: _405  and  _407
REMARK  151  A    between atoms: _407  and  _408
REMARK  152  A    between atoms: _407  and  _410
REMARK  153  A    between atoms: _410  and  _411
REMARK  154  A    between atoms: _413  and  _415
REMARK  155  A    between atoms: _415  and  _416
REMARK  156  A    between atoms: _415  and  _418
REMARK  157  A    between atoms: _418  and  _419
REMARK  158  A    between atoms: _419  and  _420
REMARK  159  A    between atoms: _420  and  _421
REMARK  160  A    between atoms: _421  and  _422
REMARK  161  A    between atoms: _426  and  _428
REMARK  162  A    between atoms: _428  and  _429
REMARK  163  A    between atoms: _428  and  _431
REMARK  164  A    between atoms: _431  and  _432
REMARK  165  A    between atoms: _437  and  _439
REMARK  166  A    between atoms: _439  and  _440
REMARK  167  A    between atoms: _439  and  _442
REMARK  168  A    between atoms: _442  and  _443
REMARK  169  A    between atoms: _443  and  _444
REMARK  170  A    between atoms: _447  and  _449
REMARK  171  A    between atoms: _449  and  _450
REMARK  172  A    between atoms: _449  and  _452
REMARK  173  A    between atoms: _455  and  _457
REMARK  174  A    between atoms: _457  and  _458
REMARK  175  A    between atoms: _457  and  _460
REMARK  176  A    between atoms: _460  and  _461
REMARK  177  A    between atoms: _464  and  _466
REMARK  178  A    between atoms: _466  and  _467
REMARK  179  A    between atoms: _466  and  _469
REMARK  180  A    between atoms: _469  and  _470
REMARK  181  A    between atoms: _473  and  _475
REMARK  182  A    between atoms: _475  and  _476
REMARK  183  A    between atoms: _475  and  _478
REMARK  184  A    between atoms: _478  and  _479
REMARK  185  A    between atoms: _482  and  _484
REMARK  186  A    between atoms: _484  and  _485
REMARK  187  A    between atoms: _487  and  _489
REMARK  188  A    between atoms: _489  and  _490
REMARK  189  A    between atoms: _492  and  _494
REMARK  190  A    between atoms: _494  and  _495
REMARK  191  A    between atoms: _494  and  _497
REMARK  192  A    between atoms: _497  and  _498
REMARK  193  A    between atoms: _498  and  _499
REMARK  194  A    between atoms: _502  and  _504
REMARK  195  A    between atoms: _504  and  _505
REMARK  196  A    between atoms: _504  and  _507
REMARK  197  A    between atoms: _507  and  _508
REMARK  198  A    between atoms: _511  and  _513
REMARK  199  A    between atoms: _513  and  _514
REMARK  200  A    between atoms: _513  and  _516
REMARK  201  A    between atoms: _516  and  _517
REMARK  202  A    between atoms: _523  and  _525
REMARK  203  A    between atoms: _525  and  _526
REMARK  204  A    between atoms: _525  and  _528
REMARK  205  A    between atoms: _528  and  _529
REMARK  206  A    between atoms: _534  and  _536
REMARK  207  A    between atoms: _536  and  _537
REMARK  208  A    between atoms: _536  and  _539
REMARK  209  A    between atoms: _539  and  _540
REMARK  210  A    between atoms: _545  and  _547
REMARK  211  A    between atoms: _547  and  _548
REMARK  212  A    between atoms: _547  and  _550
REMARK  213  A    between atoms: _550  and  _551
REMARK  214  A    between atoms: _554  and  _556
REMARK  215  A    between atoms: _556  and  _557
REMARK  216  A    between atoms: _556  and  _559
REMARK  217  A    between atoms: _559  and  _560
REMARK  218  A    between atoms: _565  and  _567
REMARK  219  A    between atoms: _567  and  _568
REMARK  220  A    between atoms: _567  and  _570
REMARK  221  A    between atoms: _570  and  _571
REMARK  222  A    between atoms: _571  and  _572
REMARK  223  A    between atoms: _572  and  _573
REMARK  224  A    between atoms: _582  and  _584
REMARK  225  A    between atoms: _584  and  _585
REMARK  226  A    between atoms: _587  and  _589
REMARK  227  A    between atoms: _589  and  _590
REMARK  228  A    between atoms: _589  and  _592
REMARK  229  A    between atoms: _592  and  _593
REMARK  230  A    between atoms: _598  and  _600
REMARK  231  A    between atoms: _600  and  _601
REMARK  232  A    between atoms: _603  and  _605
REMARK  233  A    between atoms: _605  and  _606
REMARK  234  A    between atoms: _609  and  _611
REMARK  235  A    between atoms: _611  and  _612
REMARK  236  A    between atoms: _614  and  _616
REMARK  237  A    between atoms: _616  and  _617
REMARK  238  A    between atoms: _619  and  _621
REMARK  239  A    between atoms: _621  and  _622
REMARK  240  A    between atoms: _621  and  _624
REMARK  241  A    between atoms: _624  and  _625
REMARK  242  A    between atoms: _625  and  _626
REMARK  243  A    between atoms: _626  and  _627
REMARK  244  A    between atoms: _636  and  _638
REMARK  245  A    between atoms: _638  and  _639
REMARK  246  A    between atoms: _638  and  _641
REMARK  247  A    between atoms: _641  and  _642
REMARK  248  A    between atoms: _645  and  _647
REMARK  249  A    between atoms: _647  and  _648
REMARK  250  A    between atoms: _647  and  _650
REMARK  251  A    between atoms: _650  and  _651
REMARK                            x       y       z     vdW  Elec       q    Type
REMARK                         _______ _______ _______ _____ _____    ______ ____
ROOT
ATOM      1  O   HOH     1      -5.810  13.245  46.544  0.00  0.00    +0.000 OA
ENDROOT
TORSDOF 0
REMARK  Name = ../refined-set-2016/1xd0/1xd0_pocket.pdb
REMARK  251 active torsions:
REMARK  status: ('A' for Active; 'I' for Inactive)
REMARK    1  A    between atoms: _1  and  _3
REMARK    2  A    between atoms: _3  and  _4
REMARK    3  A    between atoms: _3  and  _6
REMARK    4  A    between atoms: _6  and  _7
REMARK    5  A    between atoms: _13  and  _15
REMARK    6  A    between atoms: _15  and  _16
REMARK    7  A    between atoms: _15  and  _18
REMARK    8  A    between atoms: _18  and  _19
REMARK    9  A    between atoms: _19  and  _20
REMARK   10  A    between atoms: _26  and  _27
REMARK   11  A    between atoms: _32  and  _34
REMARK   12  A    between atoms: _34  and  _35
REMARK   13  A    between atoms: _34  and  _37
REMARK   14  A    between atoms: _37  and  _38
REMARK   15  A    between atoms: _43  and  _45
REMARK   16  A    between atoms: _45  and  _46
REMARK   17  A    between atoms: _45  and  _48
REMARK   18  A    between atoms: _51  and  _53
REMARK   19  A    between atoms: _53  and  _54
REMARK   20  A    between atoms: _53  and  _56
REMARK   21  A    between atoms: _56  and  _57
REMARK   22  A    between atoms: _61  and  _62
REMARK   23  A    between atoms: _68  and  _69
REMARK   24  A    between atoms: _74  and  _76
REMARK   25  A    between atoms: _76  and  _77
REMARK   26  A    between atoms: _76  and  _79
REMARK   27  A    between atoms: _79  and  _80
REMARK   28  A    between atoms: _90  and  _92
REMARK   29  A    between atoms: _92  and  _93
REMARK   30  A    between atoms: _92  and  _95
REMARK   31  A    between atoms: _95  and  _96
REMARK   32  A    between atoms: _106  and  _108
REMARK   33  A    between atoms: _108  and  _109
REMARK   34  A    between atoms: _108  and  _111
REMARK   35  A    between atoms: _111  and  _112
REMARK   36  A    between atoms: _112  and  _113
REMARK   37  A    between atoms: _116  and  _118
REMARK   38  A    between atoms: _118  and  _119
REMARK   39  A    between atoms: _118  and  _121
REMARK   40  A    between atoms: _121  and  _122
REMARK   41  A    between atoms: _122  and  _123
REMARK   42  A    between atoms: _123  and  _124
REMARK   43  A    between atoms: _133  and  _135
REMARK   44  A    between atoms: _135  and  _136
REMARK   45  A    between atoms: _135  and  _138
REMARK   46  A    between atoms: _138  and  _139
REMARK   47  A    between atoms: _144  and  _145
REMARK   48  A    between atoms: _147  and  _149
REMARK   49  A    between atoms: _149  and  _150
REMARK   50  A    between atoms: _149  and  _152
REMARK   51  A    between atoms: _152  and  _153
REMARK   52  A    between atoms: _153  and  _154
REMARK   53  A    between atoms: _160  and  _161
REMARK   54  A    between atoms: _166  and  _168
REMARK   55  A    between atoms: _168  and  _169
REMARK   56  A    between atoms: _168  and  _171
REMARK   57  A    between atoms: _171  and  _172
REMARK   58  A    between atoms: _175  and  _177
REMARK   59  A    between atoms: _177  and  _178
REMARK   60  A    between atoms: _181  and  _183
REMARK   61  A    between atoms: _183  and  _184
REMARK   62  A    between atoms: _183  and  _186
REMARK   63  A    between atoms: _189  and  _191
REMARK   64  A    between atoms: _191  and  _192
REMARK   65  A    between atoms: _191  and  _194
REMARK   66  A    between atoms: _194  and  _195
REMARK   67  A    between atoms: _198  and  _200
REMARK   68  A    between atoms: _200  and  _201
REMARK   69  A    between atoms: _200  and  _203
REMARK   70  A    between atoms: _203  and  _204
REMARK   71  A    between atoms: _209  and  _211
REMARK   72  A    between atoms: _211  and  _212
REMARK   73  A    between atoms: _211  and  _214
REMARK   74  A    between atoms: _214  and  _215
REMARK   75  A    between atoms: _220  and  _222
REMARK   76  A    between atoms: _222  and  _223
REMARK   77  A    between atoms: _222  and  _225
REMARK   78  A    between atoms: _225  and  _226
REMARK   79  A    between atoms: _226  and  _227
REMARK   80  A    between atoms: _229  and  _231
REMARK   81  A    between atoms: _231  and  _232
REMARK   82  A    between atoms: _231  and  _234
REMARK   83  A    between atoms: _236  and  _238
REMARK   84  A    between atoms: _238  and  _239
REMARK   85  A    between atoms: _241  and  _243
REMARK   86  A    between atoms: _243  and  _244
REMARK   87  A    between atoms: _243  and  _246
REMARK   88  A    between atoms: _246  and  _247
REMARK   89  A    between atoms: _252  and  _254
REMARK   90  A    between atoms: _254  and  _255
REMARK   91  A    between atoms: _258  and  _260
REMARK   92  A    between atoms: _260  and  _261
REMARK   93  A    between atoms: _260  and  _263
REMARK   94  A    between atoms: _266  and  _268
REMARK   95  A    between atoms: _268  and  _269
REMARK   96  A    between atoms: _268  and  _271
REMARK   97  A    between atoms: _271  and  _272
REMARK   98  A    between atoms: _275  and  _277
REMARK   99  A    between atoms: _277  and  _278
REMARK  100  A    between atoms: _277  and  _280
REMARK  101  A    between atoms: _280  and  _281
REMARK  102  A    between atoms: _284  and  _286
REMARK  103  A    between atoms: _286  and  _287
REMARK  104  A    between atoms: _286  and  _289
REMARK  105  A    between atoms: _289  and  _290
REMARK  106  A    between atoms: _295  and  _296
REMARK  107  A    between atoms: _298  and  _300
REMARK  108  A    between atoms: _300  and  _301
REMARK  109  A    between atoms: _300  and  _303
REMARK  110  A    between atoms: _306  and  _308
REMARK  111  A    between atoms: _308  and  _309
REMARK  112  A    between atoms: _308  and  _311
REMARK  113  A    between atoms: _311  and  _312
REMARK  114  A    between atoms: _312  and  _313
REMARK  115  A    between atoms: _313  and  _314
REMARK  116  A    between atoms: _323  and  _325
REMARK  117  A    between atoms: _325  and  _326
REMARK  118  A    between atoms: _325  and  _328
REMARK  119  A    between atoms: _328  and  _329
REMARK  120  A    between atoms: _332  and  _334
REMARK  121  A    between atoms: _334  and  _335
REMARK  122  A    between atoms: _334  and  _337
REMARK  123  A    between atoms: _337  and  _338
REMARK  124  A    between atoms: _341  and  _343
REMARK  125  A    between atoms: _343  and  _344
REMARK  126  A    between atoms: _346  and  _348
REMARK  127  A    between atoms: _348  and  _349
REMARK  128  A    between atoms: _348  and  _351
REMARK  129  A    between atoms: _351  and  _352
REMARK  130  A    between atoms: _355  and  _357
REMARK  131  A    between atoms: _357  and  _358
REMARK  132  A    between atoms: _357  and  _360
REMARK  133  A    between atoms: _360  and  _361
REMARK  134  A    between atoms: _364  and  _366
REMARK  135  A    between atoms: _366  and  _367
REMARK  136  A    between atoms: _366  and  _369
REMARK  137  A    between atoms: _369  and  _370
REMARK  138  A    between atoms: _370  and  _371
REMARK  139  A    between atoms: _371  and  _372
REMARK  140  A    between atoms: _381  and  _383
REMARK  141  A    between atoms: _383  and  _384
REMARK  142  A    between atoms: _383  and  _386
REMARK  143  A    between atoms: _386  and  _387
REMARK  144  A    between atoms: _390  and  _392
REMARK  145  A    between atoms: _392  and  _393
REMARK  146  A    between atoms: _392  and  _395
REMARK  147  A    between atoms: _395  and  _396
REMARK  148  A    between atoms: _399  and  _401
REMARK  149  A    between atoms: _401  and  _402
REMARK  150  A    between atoms: _405  and  _407
REMARK  151  A    between atoms: _407  and  _408
REMARK  152  A    between atoms: _407  and  _410
REMARK  153  A    between atoms: _410  and  _411
REMARK  154  A    between atoms: _413  and  _415
REMARK  155  A    between atoms: _415  and  _416
REMARK  156  A    between atoms: _415  and  _418
REMARK  157  A    between atoms: _418  and  _419
REMARK  158  A    between atoms: _419  and  _420
REMARK  159  A    between atoms: _420  and  _421
REMARK  160  A    between atoms: _421  and  _422
REMARK  161  A    between atoms: _426  and  _428
REMARK  162  A    between atoms: _428  and  _429
REMARK  163  A    between atoms: _428  and  _431
REMARK  164  A    between atoms: _431  and  _432
REMARK  165  A    between atoms: _437  and  _439
REMARK  166  A    between atoms: _439  and  _440
REMARK  167  A    between atoms: _439  and  _442
REMARK  168  A    between atoms: _442  and  _443
REMARK  169  A    between atoms: _443  and  _444
REMARK  170  A    between atoms: _447  and  _449
REMARK  171  A    between atoms: _449  and  _450
REMARK  172  A    between atoms: _449  and  _452
REMARK  173  A    between atoms: _455  and  _457
REMARK  174  A    between atoms: _457  and  _458
REMARK  175  A    between atoms: _457  and  _460
REMARK  176  A    between atoms: _460  and  _461
REMARK  177  A    between atoms: _464  and  _466
REMARK  178  A    between atoms: _466  and  _467
REMARK  179  A    between atoms: _466  and  _469
REMARK  180  A    between atoms: _469  and  _470
REMARK  181  A    between atoms: _473  and  _475
REMARK  182  A    between atoms: _475  and  _476
REMARK  183  A    between atoms: _475  and  _478
REMARK  184  A    between atoms: _478  and  _479
REMARK  185  A    between atoms: _482  and  _484
REMARK  186  A    between atoms: _484  and  _485
REMARK  187  A    between atoms: _487  and  _489
REMARK  188  A    between atoms: _489  and  _490
REMARK  189  A    between atoms: _492  and  _494
REMARK  190  A    between atoms: _494  and  _495
REMARK  191  A    between atoms: _494  and  _497
REMARK  192  A    between atoms: _497  and  _498
REMARK  193  A    between atoms: _498  and  _499
REMARK  194  A    between atoms: _502  and  _504
REMARK  195  A    between atoms: _504  and  _505
REMARK  196  A    between atoms: _504  and  _507
REMARK  197  A    between atoms: _507  and  _508
REMARK  198  A    between atoms: _511  and  _513
REMARK  199  A    between atoms: _513  and  _514
REMARK  200  A    between atoms: _513  and  _516
REMARK  201  A    between atoms: _516  and  _517
REMARK  202  A    between atoms: _523  and  _525
REMARK  203  A    between atoms: _525  and  _526
REMARK  204  A    between atoms: _525  and  _528
REMARK  205  A    between atoms: _528  and  _529
REMARK  206  A    between atoms: _534  and  _536
REMARK  207  A    between atoms: _536  and  _537
REMARK  208  A    between atoms: _536  and  _539
REMARK  209  A    between atoms: _539  and  _540
REMARK  210  A    between atoms: _545  and  _547
REMARK  211  A    between atoms: _547  and  _548
REMARK  212  A    between atoms: _547  and  _550
REMARK  213  A    between atoms: _550  and  _551
REMARK  214  A    between atoms: _554  and  _556
REMARK  215  A    between atoms: _556  and  _557
REMARK  216  A    between atoms: _556  and  _559
REMARK  217  A    between atoms: _559  and  _560
REMARK  218  A    between atoms: _565  and  _567
REMARK  219  A    between atoms: _567  and  _568
REMARK  220  A    between atoms: _567  and  _570
REMARK  221  A    between atoms: _570  and  _571
REMARK  222  A    between atoms: _571  and  _572
REMARK  223  A    between atoms: _572  and  _573
REMARK  224  A    between atoms: _582  and  _584
REMARK  225  A    between atoms: _584  and  _585
REMARK  226  A    between atoms: _587  and  _589
REMARK  227  A    between atoms: _589  and  _590
REMARK  228  A    between atoms: _589  and  _592
REMARK  229  A    between atoms: _592  and  _593
REMARK  230  A    between atoms: _598  and  _600
REMARK  231  A    between atoms: _600  and  _601
REMARK  232  A    between atoms: _603  and  _605
REMARK  233  A    between atoms: _605  and  _606
REMARK  234  A    between atoms: _609  and  _611
REMARK  235  A    between atoms: _611  and  _612
REMARK  236  A    between atoms: _614  and  _616
REMARK  237  A    between atoms: _616  and  _617
REMARK  238  A    between atoms: _619  and  _621
REMARK  239  A    between atoms: _621  and  _622
REMARK  240  A    between atoms: _621  and  _624
REMARK  241  A    between atoms: _624  and  _625
REMARK  242  A    between atoms: _625  and  _626
REMARK  243  A    between atoms: _626  and  _627
REMARK  244  A    between atoms: _636  and  _638
REMARK  245  A    between atoms: _638  and  _639
REMARK  246  A    between atoms: _638  and  _641
REMARK  247  A    between atoms: _641  and  _642
REMARK  248  A    between atoms: _645  and  _647
REMARK  249  A    between atoms: _647  and  _648
REMARK  250  A    between atoms: _647  and  _650
REMARK  251  A    between atoms: _650  and  _651
REMARK                            x       y       z     vdW  Elec       q    Type
REMARK                         _______ _______ _______ _____ _____    ______ ____
ROOT
ATOM      1  O   HOH     1      -1.048   9.196  44.903  0.00  0.00    +0.000 OA
ENDROOT
TORSDOF 0
REMARK  Name = ../refined-set-2016/1xd0/1xd0_pocket.pdb
REMARK  251 active torsions:
REMARK  status: ('A' for Active; 'I' for Inactive)
REMARK    1  A    between atoms: _1  and  _3
REMARK    2  A    between atoms: _3  and  _4
REMARK    3  A    between atoms: _3  and  _6
REMARK    4  A    between atoms: _6  and  _7
REMARK    5  A    between atoms: _13  and  _15
REMARK    6  A    between atoms: _15  and  _16
REMARK    7  A    between atoms: _15  and  _18
REMARK    8  A    between atoms: _18  and  _19
REMARK    9  A    between atoms: _19  and  _20
REMARK   10  A    between atoms: _26  and  _27
REMARK   11  A    between atoms: _32  and  _34
REMARK   12  A    between atoms: _34  and  _35
REMARK   13  A    between atoms: _34  and  _37
REMARK   14  A    between atoms: _37  and  _38
REMARK   15  A    between atoms: _43  and  _45
REMARK   16  A    between atoms: _45  and  _46
REMARK   17  A    between atoms: _45  and  _48
REMARK   18  A    between atoms: _51  and  _53
REMARK   19  A    between atoms: _53  and  _54
REMARK   20  A    between atoms: _53  and  _56
REMARK   21  A    between atoms: _56  and  _57
REMARK   22  A    between atoms: _61  and  _62
REMARK   23  A    between atoms: _68  and  _69
REMARK   24  A    between atoms: _74  and  _76
REMARK   25  A    between atoms: _76  and  _77
REMARK   26  A    between atoms: _76  and  _79
REMARK   27  A    between atoms: _79  and  _80
REMARK   28  A    between atoms: _90  and  _92
REMARK   29  A    between atoms: _92  and  _93
REMARK   30  A    between atoms: _92  and  _95
REMARK   31  A    between atoms: _95  and  _96
REMARK   32  A    between atoms: _106  and  _108
REMARK   33  A    between atoms: _108  and  _109
REMARK   34  A    between atoms: _108  and  _111
REMARK   35  A    between atoms: _111  and  _112
REMARK   36  A    between atoms: _112  and  _113
REMARK   37  A    between atoms: _116  and  _118
REMARK   38  A    between atoms: _118  and  _119
REMARK   39  A    between atoms: _118  and  _121
REMARK   40  A    between atoms: _121  and  _122
REMARK   41  A    between atoms: _122  and  _123
REMARK   42  A    between atoms: _123  and  _124
REMARK   43  A    between atoms: _133  and  _135
REMARK   44  A    between atoms: _135  and  _136
REMARK   45  A    between atoms: _135  and  _138
REMARK   46  A    between atoms: _138  and  _139
REMARK   47  A    between atoms: _144  and  _145
REMARK   48  A    between atoms: _147  and  _149
REMARK   49  A    between atoms: _149  and  _150
REMARK   50  A    between atoms: _149  and  _152
REMARK   51  A    between atoms: _152  and  _153
REMARK   52  A    between atoms: _153  and  _154
REMARK   53  A    between atoms: _160  and  _161
REMARK   54  A    between atoms: _166  and  _168
REMARK   55  A    between atoms: _168  and  _169
REMARK   56  A    between atoms: _168  and  _171
REMARK   57  A    between atoms: _171  and  _172
REMARK   58  A    between atoms: _175  and  _177
REMARK   59  A    between atoms: _177  and  _178
REMARK   60  A    between atoms: _181  and  _183
REMARK   61  A    between atoms: _183  and  _184
REMARK   62  A    between atoms: _183  and  _186
REMARK   63  A    between atoms: _189  and  _191
REMARK   64  A    between atoms: _191  and  _192
REMARK   65  A    between atoms: _191  and  _194
REMARK   66  A    between atoms: _194  and  _195
REMARK   67  A    between atoms: _198  and  _200
REMARK   68  A    between atoms: _200  and  _201
REMARK   69  A    between atoms: _200  and  _203
REMARK   70  A    between atoms: _203  and  _204
REMARK   71  A    between atoms: _209  and  _211
REMARK   72  A    between atoms: _211  and  _212
REMARK   73  A    between atoms: _211  and  _214
REMARK   74  A    between atoms: _214  and  _215
REMARK   75  A    between atoms: _220  and  _222
REMARK   76  A    between atoms: _222  and  _223
REMARK   77  A    between atoms: _222  and  _225
REMARK   78  A    between atoms: _225  and  _226
REMARK   79  A    between atoms: _226  and  _227
REMARK   80  A    between atoms: _229  and  _231
REMARK   81  A    between atoms: _231  and  _232
REMARK   82  A    between atoms: _231  and  _234
REMARK   83  A    between atoms: _236  and  _238
REMARK   84  A    between atoms: _238  and  _239
REMARK   85  A    between atoms: _241  and  _243
REMARK   86  A    between atoms: _243  and  _244
REMARK   87  A    between atoms: _243  and  _246
REMARK   88  A    between atoms: _246  and  _247
REMARK   89  A    between atoms: _252  and  _254
REMARK   90  A    between atoms: _254  and  _255
REMARK   91  A    between atoms: _258  and  _260
REMARK   92  A    between atoms: _260  and  _261
REMARK   93  A    between atoms: _260  and  _263
REMARK   94  A    between atoms: _266  and  _268
REMARK   95  A    between atoms: _268  and  _269
REMARK   96  A    between atoms: _268  and  _271
REMARK   97  A    between atoms: _271  and  _272
REMARK   98  A    between atoms: _275  and  _277
REMARK   99  A    between atoms: _277  and  _278
REMARK  100  A    between atoms: _277  and  _280
REMARK  101  A    between atoms: _280  and  _281
REMARK  102  A    between atoms: _284  and  _286
REMARK  103  A    between atoms: _286  and  _287
REMARK  104  A    between atoms: _286  and  _289
REMARK  105  A    between atoms: _289  and  _290
REMARK  106  A    between atoms: _295  and  _296
REMARK  107  A    between atoms: _298  and  _300
REMARK  108  A    between atoms: _300  and  _301
REMARK  109  A    between atoms: _300  and  _303
REMARK  110  A    between atoms: _306  and  _308
REMARK  111  A    between atoms: _308  and  _309
REMARK  112  A    between atoms: _308  and  _311
REMARK  113  A    between atoms: _311  and  _312
REMARK  114  A    between atoms: _312  and  _313
REMARK  115  A    between atoms: _313  and  _314
REMARK  116  A    between atoms: _323  and  _325
REMARK  117  A    between atoms: _325  and  _326
REMARK  118  A    between atoms: _325  and  _328
REMARK  119  A    between atoms: _328  and  _329
REMARK  120  A    between atoms: _332  and  _334
REMARK  121  A    between atoms: _334  and  _335
REMARK  122  A    between atoms: _334  and  _337
REMARK  123  A    between atoms: _337  and  _338
REMARK  124  A    between atoms: _341  and  _343
REMARK  125  A    between atoms: _343  and  _344
REMARK  126  A    between atoms: _346  and  _348
REMARK  127  A    between atoms: _348  and  _349
REMARK  128  A    between atoms: _348  and  _351
REMARK  129  A    between atoms: _351  and  _352
REMARK  130  A    between atoms: _355  and  _357
REMARK  131  A    between atoms: _357  and  _358
REMARK  132  A    between atoms: _357  and  _360
REMARK  133  A    between atoms: _360  and  _361
REMARK  134  A    between atoms: _364  and  _366
REMARK  135  A    between atoms: _366  and  _367
REMARK  136  A    between atoms: _366  and  _369
REMARK  137  A    between atoms: _369  and  _370
REMARK  138  A    between atoms: _370  and  _371
REMARK  139  A    between atoms: _371  and  _372
REMARK  140  A    between atoms: _381  and  _383
REMARK  141  A    between atoms: _383  and  _384
REMARK  142  A    between atoms: _383  and  _386
REMARK  143  A    between atoms: _386  and  _387
REMARK  144  A    between atoms: _390  and  _392
REMARK  145  A    between atoms: _392  and  _393
REMARK  146  A    between atoms: _392  and  _395
REMARK  147  A    between atoms: _395  and  _396
REMARK  148  A    between atoms: _399  and  _401
REMARK  149  A    between atoms: _401  and  _402
REMARK  150  A    between atoms: _405  and  _407
REMARK  151  A    between atoms: _407  and  _408
REMARK  152  A    between atoms: _407  and  _410
REMARK  153  A    between atoms: _410  and  _411
REMARK  154  A    between atoms: _413  and  _415
REMARK  155  A    between atoms: _415  and  _416
REMARK  156  A    between atoms: _415  and  _418
REMARK  157  A    between atoms: _418  and  _419
REMARK  158  A    between atoms: _419  and  _420
REMARK  159  A    between atoms: _420  and  _421
REMARK  160  A    between atoms: _421  and  _422
REMARK  161  A    between atoms: _426  and  _428
REMARK  162  A    between atoms: _428  and  _429
REMARK  163  A    between atoms: _428  and  _431
REMARK  164  A    between atoms: _431  and  _432
REMARK  165  A    between atoms: _437  and  _439
REMARK  166  A    between atoms: _439  and  _440
REMARK  167  A    between atoms: _439  and  _442
REMARK  168  A    between atoms: _442  and  _443
REMARK  169  A    between atoms: _443  and  _444
REMARK  170  A    between atoms: _447  and  _449
REMARK  171  A    between atoms: _449  and  _450
REMARK  172  A    between atoms: _449  and  _452
REMARK  173  A    between atoms: _455  and  _457
REMARK  174  A    between atoms: _457  and  _458
REMARK  175  A    between atoms: _457  and  _460
REMARK  176  A    between atoms: _460  and  _461
REMARK  177  A    between atoms: _464  and  _466
REMARK  178  A    between atoms: _466  and  _467
REMARK  179  A    between atoms: _466  and  _469
REMARK  180  A    between atoms: _469  and  _470
REMARK  181  A    between atoms: _473  and  _475
REMARK  182  A    between atoms: _475  and  _476
REMARK  183  A    between atoms: _475  and  _478
REMARK  184  A    between atoms: _478  and  _479
REMARK  185  A    between atoms: _482  and  _484
REMARK  186  A    between atoms: _484  and  _485
REMARK  187  A    between atoms: _487  and  _489
REMARK  188  A    between atoms: _489  and  _490
REMARK  189  A    between atoms: _492  and  _494
REMARK  190  A    between atoms: _494  and  _495
REMARK  191  A    between atoms: _494  and  _497
REMARK  192  A    between atoms: _497  and  _498
REMARK  193  A    between atoms: _498  and  _499
REMARK  194  A    between atoms: _502  and  _504
REMARK  195  A    between atoms: _504  and  _505
REMARK  196  A    between atoms: _504  and  _507
REMARK  197  A    between atoms: _507  and  _508
REMARK  198  A    between atoms: _511  and  _513
REMARK  199  A    between atoms: _513  and  _514
REMARK  200  A    between atoms: _513  and  _516
REMARK  201  A    between atoms: _516  and  _517
REMARK  202  A    between atoms: _523  and  _525
REMARK  203  A    between atoms: _525  and  _526
REMARK  204  A    between atoms: _525  and  _528
REMARK  205  A    between atoms: _528  and  _529
REMARK  206  A    between atoms: _534  and  _536
REMARK  207  A    between atoms: _536  and  _537
REMARK  208  A    between atoms: _536  and  _539
REMARK  209  A    between atoms: _539  and  _540
REMARK  210  A    between atoms: _545  and  _547
REMARK  211  A    between atoms: _547  and  _548
REMARK  212  A    between atoms: _547  and  _550
REMARK  213  A    between atoms: _550  and  _551
REMARK  214  A    between atoms: _554  and  _556
REMARK  215  A    between atoms: _556  and  _557
REMARK  216  A    between atoms: _556  and  _559
REMARK  217  A    between atoms: _559  and  _560
REMARK  218  A    between atoms: _565  and  _567
REMARK  219  A    between atoms: _567  and  _568
REMARK  220  A    between atoms: _567  and  _570
REMARK  221  A    between atoms: _570  and  _571
REMARK  222  A    between atoms: _571  and  _572
REMARK  223  A    between atoms: _572  and  _573
REMARK  224  A    between atoms: _582  and  _584
REMARK  225  A    between atoms: _584  and  _585
REMARK  226  A    between atoms: _587  and  _589
REMARK  227  A    between atoms: _589  and  _590
REMARK  228  A    between atoms: _589  and  _592
REMARK  229  A    between atoms: _592  and  _593
REMARK  230  A    between atoms: _598  and  _600
REMARK  231  A    between atoms: _600  and  _601
REMARK  232  A    between atoms: _603  and  _605
REMARK  233  A    between atoms: _605  and  _606
REMARK  234  A    between atoms: _609  and  _611
REMARK  235  A    between atoms: _611  and  _612
REMARK  236  A    between atoms: _614  and  _616
REMARK  237  A    between atoms: _616  and  _617
REMARK  238  A    between atoms: _619  and  _621
REMARK  239  A    between atoms: _621  and  _622
REMARK  240  A    between atoms: _621  and  _624
REMARK  241  A    between atoms: _624  and  _625
REMARK  242  A    between atoms: _625  and  _626
REMARK  243  A    between atoms: _626  and  _627
REMARK  244  A    between atoms: _636  and  _638
REMARK  245  A    between atoms: _638  and  _639
REMARK  246  A    between atoms: _638  and  _641
REMARK  247  A    between atoms: _641  and  _642
REMARK  248  A    between atoms: _645  and  _647
REMARK  249  A    between atoms: _647  and  _648
REMARK  250  A    between atoms: _647  and  _650
REMARK  251  A    between atoms: _650  and  _651
REMARK                            x       y       z     vdW  Elec       q    Type
REMARK                         _______ _______ _______ _____ _____    ______ ____
ROOT
ATOM      1  O   HOH     1       3.290  22.905  37.695  0.00  0.00    +0.000 OA
ENDROOT
TORSDOF 0
REMARK  Name = ../refined-set-2016/1xd0/1xd0_pocket.pdb
REMARK  251 active torsions:
REMARK  status: ('A' for Active; 'I' for Inactive)
REMARK    1  A    between atoms: _1  and  _3
REMARK    2  A    between atoms: _3  and  _4
REMARK    3  A    between atoms: _3  and  _6
REMARK    4  A    between atoms: _6  and  _7
REMARK    5  A    between atoms: _13  and  _15
REMARK    6  A    between atoms: _15  and  _16
REMARK    7  A    between atoms: _15  and  _18
REMARK    8  A    between atoms: _18  and  _19
REMARK    9  A    between atoms: _19  and  _20
REMARK   10  A    between atoms: _26  and  _27
REMARK   11  A    between atoms: _32  and  _34
REMARK   12  A    between atoms: _34  and  _35
REMARK   13  A    between atoms: _34  and  _37
REMARK   14  A    between atoms: _37  and  _38
REMARK   15  A    between atoms: _43  and  _45
REMARK   16  A    between atoms: _45  and  _46
REMARK   17  A    between atoms: _45  and  _48
REMARK   18  A    between atoms: _51  and  _53
REMARK   19  A    between atoms: _53  and  _54
REMARK   20  A    between atoms: _53  and  _56
REMARK   21  A    between atoms: _56  and  _57
REMARK   22  A    between atoms: _61  and  _62
REMARK   23  A    between atoms: _68  and  _69
REMARK   24  A    between atoms: _74  and  _76
REMARK   25  A    between atoms: _76  and  _77
REMARK   26  A    between atoms: _76  and  _79
REMARK   27  A    between atoms: _79  and  _80
REMARK   28  A    between atoms: _90  and  _92
REMARK   29  A    between atoms: _92  and  _93
REMARK   30  A    between atoms: _92  and  _95
REMARK   31  A    between atoms: _95  and  _96
REMARK   32  A    between atoms: _106  and  _108
REMARK   33  A    between atoms: _108  and  _109
REMARK   34  A    between atoms: _108  and  _111
REMARK   35  A    between atoms: _111  and  _112
REMARK   36  A    between atoms: _112  and  _113
REMARK   37  A    between atoms: _116  and  _118
REMARK   38  A    between atoms: _118  and  _119
REMARK   39  A    between atoms: _118  and  _121
REMARK   40  A    between atoms: _121  and  _122
REMARK   41  A    between atoms: _122  and  _123
REMARK   42  A    between atoms: _123  and  _124
REMARK   43  A    between atoms: _133  and  _135
REMARK   44  A    between atoms: _135  and  _136
REMARK   45  A    between atoms: _135  and  _138
REMARK   46  A    between atoms: _138  and  _139
REMARK   47  A    between atoms: _144  and  _145
REMARK   48  A    between atoms: _147  and  _149
REMARK   49  A    between atoms: _149  and  _150
REMARK   50  A    between atoms: _149  and  _152
REMARK   51  A    between atoms: _152  and  _153
REMARK   52  A    between atoms: _153  and  _154
REMARK   53  A    between atoms: _160  and  _161
REMARK   54  A    between atoms: _166  and  _168
REMARK   55  A    between atoms: _168  and  _169
REMARK   56  A    between atoms: _168  and  _171
REMARK   57  A    between atoms: _171  and  _172
REMARK   58  A    between atoms: _175  and  _177
REMARK   59  A    between atoms: _177  and  _178
REMARK   60  A    between atoms: _181  and  _183
REMARK   61  A    between atoms: _183  and  _184
REMARK   62  A    between atoms: _183  and  _186
REMARK   63  A    between atoms: _189  and  _191
REMARK   64  A    between atoms: _191  and  _192
REMARK   65  A    between atoms: _191  and  _194
REMARK   66  A    between atoms: _194  and  _195
REMARK   67  A    between atoms: _198  and  _200
REMARK   68  A    between atoms: _200  and  _201
REMARK   69  A    between atoms: _200  and  _203
REMARK   70  A    between atoms: _203  and  _204
REMARK   71  A    between atoms: _209  and  _211
REMARK   72  A    between atoms: _211  and  _212
REMARK   73  A    between atoms: _211  and  _214
REMARK   74  A    between atoms: _214  and  _215
REMARK   75  A    between atoms: _220  and  _222
REMARK   76  A    between atoms: _222  and  _223
REMARK   77  A    between atoms: _222  and  _225
REMARK   78  A    between atoms: _225  and  _226
REMARK   79  A    between atoms: _226  and  _227
REMARK   80  A    between atoms: _229  and  _231
REMARK   81  A    between atoms: _231  and  _232
REMARK   82  A    between atoms: _231  and  _234
REMARK   83  A    between atoms: _236  and  _238
REMARK   84  A    between atoms: _238  and  _239
REMARK   85  A    between atoms: _241  and  _243
REMARK   86  A    between atoms: _243  and  _244
REMARK   87  A    between atoms: _243  and  _246
REMARK   88  A    between atoms: _246  and  _247
REMARK   89  A    between atoms: _252  and  _254
REMARK   90  A    between atoms: _254  and  _255
REMARK   91  A    between atoms: _258  and  _260
REMARK   92  A    between atoms: _260  and  _261
REMARK   93  A    between atoms: _260  and  _263
REMARK   94  A    between atoms: _266  and  _268
REMARK   95  A    between atoms: _268  and  _269
REMARK   96  A    between atoms: _268  and  _271
REMARK   97  A    between atoms: _271  and  _272
REMARK   98  A    between atoms: _275  and  _277
REMARK   99  A    between atoms: _277  and  _278
REMARK  100  A    between atoms: _277  and  _280
REMARK  101  A    between atoms: _280  and  _281
REMARK  102  A    between atoms: _284  and  _286
REMARK  103  A    between atoms: _286  and  _287
REMARK  104  A    between atoms: _286  and  _289
REMARK  105  A    between atoms: _289  and  _290
REMARK  106  A    between atoms: _295  and  _296
REMARK  107  A    between atoms: _298  and  _300
REMARK  108  A    between atoms: _300  and  _301
REMARK  109  A    between atoms: _300  and  _303
REMARK  110  A    between atoms: _306  and  _308
REMARK  111  A    between atoms: _308  and  _309
REMARK  112  A    between atoms: _308  and  _311
REMARK  113  A    between atoms: _311  and  _312
REMARK  114  A    between atoms: _312  and  _313
REMARK  115  A    between atoms: _313  and  _314
REMARK  116  A    between atoms: _323  and  _325
REMARK  117  A    between atoms: _325  and  _326
REMARK  118  A    between atoms: _325  and  _328
REMARK  119  A    between atoms: _328  and  _329
REMARK  120  A    between atoms: _332  and  _334
REMARK  121  A    between atoms: _334  and  _335
REMARK  122  A    between atoms: _334  and  _337
REMARK  123  A    between atoms: _337  and  _338
REMARK  124  A    between atoms: _341  and  _343
REMARK  125  A    between atoms: _343  and  _344
REMARK  126  A    between atoms: _346  and  _348
REMARK  127  A    between atoms: _348  and  _349
REMARK  128  A    between atoms: _348  and  _351
REMARK  129  A    between atoms: _351  and  _352
REMARK  130  A    between atoms: _355  and  _357
REMARK  131  A    between atoms: _357  and  _358
REMARK  132  A    between atoms: _357  and  _360
REMARK  133  A    between atoms: _360  and  _361
REMARK  134  A    between atoms: _364  and  _366
REMARK  135  A    between atoms: _366  and  _367
REMARK  136  A    between atoms: _366  and  _369
REMARK  137  A    between atoms: _369  and  _370
REMARK  138  A    between atoms: _370  and  _371
REMARK  139  A    between atoms: _371  and  _372
REMARK  140  A    between atoms: _381  and  _383
REMARK  141  A    between atoms: _383  and  _384
REMARK  142  A    between atoms: _383  and  _386
REMARK  143  A    between atoms: _386  and  _387
REMARK  144  A    between atoms: _390  and  _392
REMARK  145  A    between atoms: _392  and  _393
REMARK  146  A    between atoms: _392  and  _395
REMARK  147  A    between atoms: _395  and  _396
REMARK  148  A    between atoms: _399  and  _401
REMARK  149  A    between atoms: _401  and  _402
REMARK  150  A    between atoms: _405  and  _407
REMARK  151  A    between atoms: _407  and  _408
REMARK  152  A    between atoms: _407  and  _410
REMARK  153  A    between atoms: _410  and  _411
REMARK  154  A    between atoms: _413  and  _415
REMARK  155  A    between atoms: _415  and  _416
REMARK  156  A    between atoms: _415  and  _418
REMARK  157  A    between atoms: _418  and  _419
REMARK  158  A    between atoms: _419  and  _420
REMARK  159  A    between atoms: _420  and  _421
REMARK  160  A    between atoms: _421  and  _422
REMARK  161  A    between atoms: _426  and  _428
REMARK  162  A    between atoms: _428  and  _429
REMARK  163  A    between atoms: _428  and  _431
REMARK  164  A    between atoms: _431  and  _432
REMARK  165  A    between atoms: _437  and  _439
REMARK  166  A    between atoms: _439  and  _440
REMARK  167  A    between atoms: _439  and  _442
REMARK  168  A    between atoms: _442  and  _443
REMARK  169  A    between atoms: _443  and  _444
REMARK  170  A    between atoms: _447  and  _449
REMARK  171  A    between atoms: _449  and  _450
REMARK  172  A    between atoms: _449  and  _452
REMARK  173  A    between atoms: _455  and  _457
REMARK  174  A    between atoms: _457  and  _458
REMARK  175  A    between atoms: _457  and  _460
REMARK  176  A    between atoms: _460  and  _461
REMARK  177  A    between atoms: _464  and  _466
REMARK  178  A    between atoms: _466  and  _467
REMARK  179  A    between atoms: _466  and  _469
REMARK  180  A    between atoms: _469  and  _470
REMARK  181  A    between atoms: _473  and  _475
REMARK  182  A    between atoms: _475  and  _476
REMARK  183  A    between atoms: _475  and  _478
REMARK  184  A    between atoms: _478  and  _479
REMARK  185  A    between atoms: _482  and  _484
REMARK  186  A    between atoms: _484  and  _485
REMARK  187  A    between atoms: _487  and  _489
REMARK  188  A    between atoms: _489  and  _490
REMARK  189  A    between atoms: _492  and  _494
REMARK  190  A    between atoms: _494  and  _495
REMARK  191  A    between atoms: _494  and  _497
REMARK  192  A    between atoms: _497  and  _498
REMARK  193  A    between atoms: _498  and  _499
REMARK  194  A    between atoms: _502  and  _504
REMARK  195  A    between atoms: _504  and  _505
REMARK  196  A    between atoms: _504  and  _507
REMARK  197  A    between atoms: _507  and  _508
REMARK  198  A    between atoms: _511  and  _513
REMARK  199  A    between atoms: _513  and  _514
REMARK  200  A    between atoms: _513  and  _516
REMARK  201  A    between atoms: _516  and  _517
REMARK  202  A    between atoms: _523  and  _525
REMARK  203  A    between atoms: _525  and  _526
REMARK  204  A    between atoms: _525  and  _528
REMARK  205  A    between atoms: _528  and  _529
REMARK  206  A    between atoms: _534  and  _536
REMARK  207  A    between atoms: _536  and  _537
REMARK  208  A    between atoms: _536  and  _539
REMARK  209  A    between atoms: _539  and  _540
REMARK  210  A    between atoms: _545  and  _547
REMARK  211  A    between atoms: _547  and  _548
REMARK  212  A    between atoms: _547  and  _550
REMARK  213  A    between atoms: _550  and  _551
REMARK  214  A    between atoms: _554  and  _556
REMARK  215  A    between atoms: _556  and  _557
REMARK  216  A    between atoms: _556  and  _559
REMARK  217  A    between atoms: _559  and  _560
REMARK  218  A    between atoms: _565  and  _567
REMARK  219  A    between atoms: _567  and  _568
REMARK  220  A    between atoms: _567  and  _570
REMARK  221  A    between atoms: _570  and  _571
REMARK  222  A    between atoms: _571  and  _572
REMARK  223  A    between atoms: _572  and  _573
REMARK  224  A    between atoms: _582  and  _584
REMARK  225  A    between atoms: _584  and  _585
REMARK  226  A    between atoms: _587  and  _589
REMARK  227  A    between atoms: _589  and  _590
REMARK  228  A    between atoms: _589  and  _592
REMARK  229  A    between atoms: _592  and  _593
REMARK  230  A    between atoms: _598  and  _600
REMARK  231  A    between atoms: _600  and  _601
REMARK  232  A    between atoms: _603  and  _605
REMARK  233  A    between atoms: _605  and  _606
REMARK  234  A    between atoms: _609  and  _611
REMARK  235  A    between atoms: _611  and  _612
REMARK  236  A    between atoms: _614  and  _616
REMARK  237  A    between atoms: _616  and  _617
REMARK  238  A    between atoms: _619  and  _621
REMARK  239  A    between atoms: _621  and  _622
REMARK  240  A    between atoms: _621  and  _624
REMARK  241  A    between atoms: _624  and  _625
REMARK  242  A    between atoms: _625  and  _626
REMARK  243  A    between atoms: _626  and  _627
REMARK  244  A    between atoms: _636  and  _638
REMARK  245  A    between atoms: _638  and  _639
REMARK  246  A    between atoms: _638  and  _641
REMARK  247  A    between atoms: _641  and  _642
REMARK  248  A    between atoms: _645  and  _647
REMARK  249  A    between atoms: _647  and  _648
REMARK  250  A    between atoms: _647  and  _650
REMARK  251  A    between atoms: _650  and  _651
REMARK                            x       y       z     vdW  Elec       q    Type
REMARK                         _______ _______ _______ _____ _____    ______ ____
ROOT
ATOM      1  O   HOH     1      -2.914  15.071  43.651  0.00  0.00    +0.000 OA
ENDROOT
TORSDOF 0
REMARK  Name = ../refined-set-2016/1xd0/1xd0_pocket.pdb
REMARK  251 active torsions:
REMARK  status: ('A' for Active; 'I' for Inactive)
REMARK    1  A    between atoms: _1  and  _3
REMARK    2  A    between atoms: _3  and  _4
REMARK    3  A    between atoms: _3  and  _6
REMARK    4  A    between atoms: _6  and  _7
REMARK    5  A    between atoms: _13  and  _15
REMARK    6  A    between atoms: _15  and  _16
REMARK    7  A    between atoms: _15  and  _18
REMARK    8  A    between atoms: _18  and  _19
REMARK    9  A    between atoms: _19  and  _20
REMARK   10  A    between atoms: _26  and  _27
REMARK   11  A    between atoms: _32  and  _34
REMARK   12  A    between atoms: _34  and  _35
REMARK   13  A    between atoms: _34  and  _37
REMARK   14  A    between atoms: _37  and  _38
REMARK   15  A    between atoms: _43  and  _45
REMARK   16  A    between atoms: _45  and  _46
REMARK   17  A    between atoms: _45  and  _48
REMARK   18  A    between atoms: _51  and  _53
REMARK   19  A    between atoms: _53  and  _54
REMARK   20  A    between atoms: _53  and  _56
REMARK   21  A    between atoms: _56  and  _57
REMARK   22  A    between atoms: _61  and  _62
REMARK   23  A    between atoms: _68  and  _69
REMARK   24  A    between atoms: _74  and  _76
REMARK   25  A    between atoms: _76  and  _77
REMARK   26  A    between atoms: _76  and  _79
REMARK   27  A    between atoms: _79  and  _80
REMARK   28  A    between atoms: _90  and  _92
REMARK   29  A    between atoms: _92  and  _93
REMARK   30  A    between atoms: _92  and  _95
REMARK   31  A    between atoms: _95  and  _96
REMARK   32  A    between atoms: _106  and  _108
REMARK   33  A    between atoms: _108  and  _109
REMARK   34  A    between atoms: _108  and  _111
REMARK   35  A    between atoms: _111  and  _112
REMARK   36  A    between atoms: _112  and  _113
REMARK   37  A    between atoms: _116  and  _118
REMARK   38  A    between atoms: _118  and  _119
REMARK   39  A    between atoms: _118  and  _121
REMARK   40  A    between atoms: _121  and  _122
REMARK   41  A    between atoms: _122  and  _123
REMARK   42  A    between atoms: _123  and  _124
REMARK   43  A    between atoms: _133  and  _135
REMARK   44  A    between atoms: _135  and  _136
REMARK   45  A    between atoms: _135  and  _138
REMARK   46  A    between atoms: _138  and  _139
REMARK   47  A    between atoms: _144  and  _145
REMARK   48  A    between atoms: _147  and  _149
REMARK   49  A    between atoms: _149  and  _150
REMARK   50  A    between atoms: _149  and  _152
REMARK   51  A    between atoms: _152  and  _153
REMARK   52  A    between atoms: _153  and  _154
REMARK   53  A    between atoms: _160  and  _161
REMARK   54  A    between atoms: _166  and  _168
REMARK   55  A    between atoms: _168  and  _169
REMARK   56  A    between atoms: _168  and  _171
REMARK   57  A    between atoms: _171  and  _172
REMARK   58  A    between atoms: _175  and  _177
REMARK   59  A    between atoms: _177  and  _178
REMARK   60  A    between atoms: _181  and  _183
REMARK   61  A    between atoms: _183  and  _184
REMARK   62  A    between atoms: _183  and  _186
REMARK   63  A    between atoms: _189  and  _191
REMARK   64  A    between atoms: _191  and  _192
REMARK   65  A    between atoms: _191  and  _194
REMARK   66  A    between atoms: _194  and  _195
REMARK   67  A    between atoms: _198  and  _200
REMARK   68  A    between atoms: _200  and  _201
REMARK   69  A    between atoms: _200  and  _203
REMARK   70  A    between atoms: _203  and  _204
REMARK   71  A    between atoms: _209  and  _211
REMARK   72  A    between atoms: _211  and  _212
REMARK   73  A    between atoms: _211  and  _214
REMARK   74  A    between atoms: _214  and  _215
REMARK   75  A    between atoms: _220  and  _222
REMARK   76  A    between atoms: _222  and  _223
REMARK   77  A    between atoms: _222  and  _225
REMARK   78  A    between atoms: _225  and  _226
REMARK   79  A    between atoms: _226  and  _227
REMARK   80  A    between atoms: _229  and  _231
REMARK   81  A    between atoms: _231  and  _232
REMARK   82  A    between atoms: _231  and  _234
REMARK   83  A    between atoms: _236  and  _238
REMARK   84  A    between atoms: _238  and  _239
REMARK   85  A    between atoms: _241  and  _243
REMARK   86  A    between atoms: _243  and  _244
REMARK   87  A    between atoms: _243  and  _246
REMARK   88  A    between atoms: _246  and  _247
REMARK   89  A    between atoms: _252  and  _254
REMARK   90  A    between atoms: _254  and  _255
REMARK   91  A    between atoms: _258  and  _260
REMARK   92  A    between atoms: _260  and  _261
REMARK   93  A    between atoms: _260  and  _263
REMARK   94  A    between atoms: _266  and  _268
REMARK   95  A    between atoms: _268  and  _269
REMARK   96  A    between atoms: _268  and  _271
REMARK   97  A    between atoms: _271  and  _272
REMARK   98  A    between atoms: _275  and  _277
REMARK   99  A    between atoms: _277  and  _278
REMARK  100  A    between atoms: _277  and  _280
REMARK  101  A    between atoms: _280  and  _281
REMARK  102  A    between atoms: _284  and  _286
REMARK  103  A    between atoms: _286  and  _287
REMARK  104  A    between atoms: _286  and  _289
REMARK  105  A    between atoms: _289  and  _290
REMARK  106  A    between atoms: _295  and  _296
REMARK  107  A    between atoms: _298  and  _300
REMARK  108  A    between atoms: _300  and  _301
REMARK  109  A    between atoms: _300  and  _303
REMARK  110  A    between atoms: _306  and  _308
REMARK  111  A    between atoms: _308  and  _309
REMARK  112  A    between atoms: _308  and  _311
REMARK  113  A    between atoms: _311  and  _312
REMARK  114  A    between atoms: _312  and  _313
REMARK  115  A    between atoms: _313  and  _314
REMARK  116  A    between atoms: _323  and  _325
REMARK  117  A    between atoms: _325  and  _326
REMARK  118  A    between atoms: _325  and  _328
REMARK  119  A    between atoms: _328  and  _329
REMARK  120  A    between atoms: _332  and  _334
REMARK  121  A    between atoms: _334  and  _335
REMARK  122  A    between atoms: _334  and  _337
REMARK  123  A    between atoms: _337  and  _338
REMARK  124  A    between atoms: _341  and  _343
REMARK  125  A    between atoms: _343  and  _344
REMARK  126  A    between atoms: _346  and  _348
REMARK  127  A    between atoms: _348  and  _349
REMARK  128  A    between atoms: _348  and  _351
REMARK  129  A    between atoms: _351  and  _352
REMARK  130  A    between atoms: _355  and  _357
REMARK  131  A    between atoms: _357  and  _358
REMARK  132  A    between atoms: _357  and  _360
REMARK  133  A    between atoms: _360  and  _361
REMARK  134  A    between atoms: _364  and  _366
REMARK  135  A    between atoms: _366  and  _367
REMARK  136  A    between atoms: _366  and  _369
REMARK  137  A    between atoms: _369  and  _370
REMARK  138  A    between atoms: _370  and  _371
REMARK  139  A    between atoms: _371  and  _372
REMARK  140  A    between atoms: _381  and  _383
REMARK  141  A    between atoms: _383  and  _384
REMARK  142  A    between atoms: _383  and  _386
REMARK  143  A    between atoms: _386  and  _387
REMARK  144  A    between atoms: _390  and  _392
REMARK  145  A    between atoms: _392  and  _393
REMARK  146  A    between atoms: _392  and  _395
REMARK  147  A    between atoms: _395  and  _396
REMARK  148  A    between atoms: _399  and  _401
REMARK  149  A    between atoms: _401  and  _402
REMARK  150  A    between atoms: _405  and  _407
REMARK  151  A    between atoms: _407  and  _408
REMARK  152  A    between atoms: _407  and  _410
REMARK  153  A    between atoms: _410  and  _411
REMARK  154  A    between atoms: _413  and  _415
REMARK  155  A    between atoms: _415  and  _416
REMARK  156  A    between atoms: _415  and  _418
REMARK  157  A    between atoms: _418  and  _419
REMARK  158  A    between atoms: _419  and  _420
REMARK  159  A    between atoms: _420  and  _421
REMARK  160  A    between atoms: _421  and  _422
REMARK  161  A    between atoms: _426  and  _428
REMARK  162  A    between atoms: _428  and  _429
REMARK  163  A    between atoms: _428  and  _431
REMARK  164  A    between atoms: _431  and  _432
REMARK  165  A    between atoms: _437  and  _439
REMARK  166  A    between atoms: _439  and  _440
REMARK  167  A    between atoms: _439  and  _442
REMARK  168  A    between atoms: _442  and  _443
REMARK  169  A    between atoms: _443  and  _444
REMARK  170  A    between atoms: _447  and  _449
REMARK  171  A    between atoms: _449  and  _450
REMARK  172  A    between atoms: _449  and  _452
REMARK  173  A    between atoms: _455  and  _457
REMARK  174  A    between atoms: _457  and  _458
REMARK  175  A    between atoms: _457  and  _460
REMARK  176  A    between atoms: _460  and  _461
REMARK  177  A    between atoms: _464  and  _466
REMARK  178  A    between atoms: _466  and  _467
REMARK  179  A    between atoms: _466  and  _469
REMARK  180  A    between atoms: _469  and  _470
REMARK  181  A    between atoms: _473  and  _475
REMARK  182  A    between atoms: _475  and  _476
REMARK  183  A    between atoms: _475  and  _478
REMARK  184  A    between atoms: _478  and  _479
REMARK  185  A    between atoms: _482  and  _484
REMARK  186  A    between atoms: _484  and  _485
REMARK  187  A    between atoms: _487  and  _489
REMARK  188  A    between atoms: _489  and  _490
REMARK  189  A    between atoms: _492  and  _494
REMARK  190  A    between atoms: _494  and  _495
REMARK  191  A    between atoms: _494  and  _497
REMARK  192  A    between atoms: _497  and  _498
REMARK  193  A    between atoms: _498  and  _499
REMARK  194  A    between atoms: _502  and  _504
REMARK  195  A    between atoms: _504  and  _505
REMARK  196  A    between atoms: _504  and  _507
REMARK  197  A    between atoms: _507  and  _508
REMARK  198  A    between atoms: _511  and  _513
REMARK  199  A    between atoms: _513  and  _514
REMARK  200  A    between atoms: _513  and  _516
REMARK  201  A    between atoms: _516  and  _517
REMARK  202  A    between atoms: _523  and  _525
REMARK  203  A    between atoms: _525  and  _526
REMARK  204  A    between atoms: _525  and  _528
REMARK  205  A    between atoms: _528  and  _529
REMARK  206  A    between atoms: _534  and  _536
REMARK  207  A    between atoms: _536  and  _537
REMARK  208  A    between atoms: _536  and  _539
REMARK  209  A    between atoms: _539  and  _540
REMARK  210  A    between atoms: _545  and  _547
REMARK  211  A    between atoms: _547  and  _548
REMARK  212  A    between atoms: _547  and  _550
REMARK  213  A    between atoms: _550  and  _551
REMARK  214  A    between atoms: _554  and  _556
REMARK  215  A    between atoms: _556  and  _557
REMARK  216  A    between atoms: _556  and  _559
REMARK  217  A    between atoms: _559  and  _560
REMARK  218  A    between atoms: _565  and  _567
REMARK  219  A    between atoms: _567  and  _568
REMARK  220  A    between atoms: _567  and  _570
REMARK  221  A    between atoms: _570  and  _571
REMARK  222  A    between atoms: _571  and  _572
REMARK  223  A    between atoms: _572  and  _573
REMARK  224  A    between atoms: _582  and  _584
REMARK  225  A    between atoms: _584  and  _585
REMARK  226  A    between atoms: _587  and  _589
REMARK  227  A    between atoms: _589  and  _590
REMARK  228  A    between atoms: _589  and  _592
REMARK  229  A    between atoms: _592  and  _593
REMARK  230  A    between atoms: _598  and  _600
REMARK  231  A    between atoms: _600  and  _601
REMARK  232  A    between atoms: _603  and  _605
REMARK  233  A    between atoms: _605  and  _606
REMARK  234  A    between atoms: _609  and  _611
REMARK  235  A    between atoms: _611  and  _612
REMARK  236  A    between atoms: _614  and  _616
REMARK  237  A    between atoms: _616  and  _617
REMARK  238  A    between atoms: _619  and  _621
REMARK  239  A    between atoms: _621  and  _622
REMARK  240  A    between atoms: _621  and  _624
REMARK  241  A    between atoms: _624  and  _625
REMARK  242  A    between atoms: _625  and  _626
REMARK  243  A    between atoms: _626  and  _627
REMARK  244  A    between atoms: _636  and  _638
REMARK  245  A    between atoms: _638  and  _639
REMARK  246  A    between atoms: _638  and  _641
REMARK  247  A    between atoms: _641  and  _642
REMARK  248  A    between atoms: _645  and  _647
REMARK  249  A    between atoms: _647  and  _648
REMARK  250  A    between atoms: _647  and  _650
REMARK  251  A    between atoms: _650  and  _651
REMARK                            x       y       z     vdW  Elec       q    Type
REMARK                         _______ _______ _______ _____ _____    ______ ____
ROOT
ATOM      1  O   HOH     1       5.410  14.969  47.349  0.00  0.00    +0.000 OA
ENDROOT
TORSDOF 0
