REMARK  Name = ../refined-set-2016/3drf/3drf_pocket.pdb
REMARK  320 active torsions:
REMARK  status: ('A' for Active; 'I' for Inactive)
REMARK    1  A    between atoms: _1  and  _3
REMARK    2  A    between atoms: _3  and  _4
REMARK    3  A    between atoms: _3  and  _6
REMARK    4  A    between atoms: _6  and  _7
REMARK    5  A    between atoms: _12  and  _13
REMARK    6  A    between atoms: _15  and  _17
REMARK    7  A    between atoms: _17  and  _18
REMARK    8  A    between atoms: _17  and  _20
REMARK    9  A    between atoms: _20  and  _21
REMARK   10  A    between atoms: _21  and  _22
REMARK   11  A    between atoms: _27  and  _29
REMARK   12  A    between atoms: _29  and  _30
REMARK   13  A    between atoms: _29  and  _32
REMARK   14  A    between atoms: _32  and  _33
REMARK   15  A    between atoms: _35  and  _37
REMARK   16  A    between atoms: _37  and  _38
REMARK   17  A    between atoms: _37  and  _40
REMARK   18  A    between atoms: _40  and  _41
REMARK   19  A    between atoms: _44  and  _46
REMARK   20  A    between atoms: _46  and  _47
REMARK   21  A    between atoms: _46  and  _49
REMARK   22  A    between atoms: _49  and  _50
REMARK   23  A    between atoms: _52  and  _54
REMARK   24  A    between atoms: _54  and  _55
REMARK   25  A    between atoms: _54  and  _57
REMARK   26  A    between atoms: _57  and  _58
REMARK   27  A    between atoms: _60  and  _62
REMARK   28  A    between atoms: _62  and  _63
REMARK   29  A    between atoms: _65  and  _67
REMARK   30  A    between atoms: _67  and  _68
REMARK   31  A    between atoms: _67  and  _70
REMARK   32  A    between atoms: _70  and  _71
REMARK   33  A    between atoms: _73  and  _75
REMARK   34  A    between atoms: _75  and  _76
REMARK   35  A    between atoms: _75  and  _78
REMARK   36  A    between atoms: _78  and  _79
REMARK   37  A    between atoms: _84  and  _86
REMARK   38  A    between atoms: _86  and  _87
REMARK   39  A    between atoms: _86  and  _89
REMARK   40  A    between atoms: _89  and  _90
REMARK   41  A    between atoms: _93  and  _95
REMARK   42  A    between atoms: _95  and  _96
REMARK   43  A    between atoms: _99  and  _101
REMARK   44  A    between atoms: _101  and  _102
REMARK   45  A    between atoms: _101  and  _104
REMARK   46  A    between atoms: _104  and  _105
REMARK   47  A    between atoms: _108  and  _110
REMARK   48  A    between atoms: _110  and  _111
REMARK   49  A    between atoms: _110  and  _113
REMARK   50  A    between atoms: _113  and  _114
REMARK   51  A    between atoms: _120  and  _122
REMARK   52  A    between atoms: _122  and  _123
REMARK   53  A    between atoms: _126  and  _128
REMARK   54  A    between atoms: _128  and  _129
REMARK   55  A    between atoms: _128  and  _131
REMARK   56  A    between atoms: _131  and  _132
REMARK   57  A    between atoms: _135  and  _137
REMARK   58  A    between atoms: _137  and  _138
REMARK   59  A    between atoms: _140  and  _142
REMARK   60  A    between atoms: _142  and  _143
REMARK   61  A    between atoms: _142  and  _145
REMARK   62  A    between atoms: _145  and  _146
REMARK   63  A    between atoms: _146  and  _147
REMARK   64  A    between atoms: _152  and  _154
REMARK   65  A    between atoms: _154  and  _155
REMARK   66  A    between atoms: _157  and  _159
REMARK   67  A    between atoms: _159  and  _160
REMARK   68  A    between atoms: _159  and  _162
REMARK   69  A    between atoms: _162  and  _163
REMARK   70  A    between atoms: _166  and  _168
REMARK   71  A    between atoms: _168  and  _169
REMARK   72  A    between atoms: _168  and  _171
REMARK   73  A    between atoms: _171  and  _172
REMARK   74  A    between atoms: _178  and  _180
REMARK   75  A    between atoms: _180  and  _181
REMARK   76  A    between atoms: _180  and  _183
REMARK   77  A    between atoms: _183  and  _184
REMARK   78  A    between atoms: _187  and  _189
REMARK   79  A    between atoms: _189  and  _190
REMARK   80  A    between atoms: _189  and  _192
REMARK   81  A    between atoms: _192  and  _193
REMARK   82  A    between atoms: _199  and  _201
REMARK   83  A    between atoms: _201  and  _202
REMARK   84  A    between atoms: _201  and  _204
REMARK   85  A    between atoms: _204  and  _205
REMARK   86  A    between atoms: _211  and  _213
REMARK   87  A    between atoms: _213  and  _214
REMARK   88  A    between atoms: _213  and  _216
REMARK   89  A    between atoms: _216  and  _217
REMARK   90  A    between atoms: _220  and  _222
REMARK   91  A    between atoms: _222  and  _223
REMARK   92  A    between atoms: _222  and  _225
REMARK   93  A    between atoms: _225  and  _226
REMARK   94  A    between atoms: _229  and  _231
REMARK   95  A    between atoms: _231  and  _232
REMARK   96  A    between atoms: _231  and  _234
REMARK   97  A    between atoms: _234  and  _235
REMARK   98  A    between atoms: _235  and  _236
REMARK   99  A    between atoms: _236  and  _237
REMARK  100  A    between atoms: _246  and  _248
REMARK  101  A    between atoms: _248  and  _249
REMARK  102  A    between atoms: _248  and  _251
REMARK  103  A    between atoms: _251  and  _252
REMARK  104  A    between atoms: _255  and  _257
REMARK  105  A    between atoms: _257  and  _258
REMARK  106  A    between atoms: _257  and  _260
REMARK  107  A    between atoms: _260  and  _261
REMARK  108  A    between atoms: _263  and  _265
REMARK  109  A    between atoms: _265  and  _266
REMARK  110  A    between atoms: _265  and  _268
REMARK  111  A    between atoms: _268  and  _269
REMARK  112  A    between atoms: _269  and  _270
REMARK  113  A    between atoms: _275  and  _277
REMARK  114  A    between atoms: _277  and  _278
REMARK  115  A    between atoms: _277  and  _280
REMARK  116  A    between atoms: _280  and  _281
REMARK  117  A    between atoms: _283  and  _285
REMARK  118  A    between atoms: _285  and  _286
REMARK  119  A    between atoms: _288  and  _290
REMARK  120  A    between atoms: _290  and  _291
REMARK  121  A    between atoms: _290  and  _293
REMARK  122  A    between atoms: _293  and  _294
REMARK  123  A    between atoms: _299  and  _301
REMARK  124  A    between atoms: _301  and  _302
REMARK  125  A    between atoms: _304  and  _306
REMARK  126  A    between atoms: _306  and  _307
REMARK  127  A    between atoms: _306  and  _309
REMARK  128  A    between atoms: _309  and  _310
REMARK  129  A    between atoms: _315  and  _316
REMARK  130  A    between atoms: _318  and  _320
REMARK  131  A    between atoms: _320  and  _321
REMARK  132  A    between atoms: _320  and  _323
REMARK  133  A    between atoms: _323  and  _324
REMARK  134  A    between atoms: _330  and  _332
REMARK  135  A    between atoms: _332  and  _333
REMARK  136  A    between atoms: _332  and  _335
REMARK  137  A    between atoms: _335  and  _336
REMARK  138  A    between atoms: _339  and  _341
REMARK  139  A    between atoms: _341  and  _342
REMARK  140  A    between atoms: _341  and  _344
REMARK  141  A    between atoms: _344  and  _345
REMARK  142  A    between atoms: _345  and  _346
REMARK  143  A    between atoms: _349  and  _351
REMARK  144  A    between atoms: _351  and  _352
REMARK  145  A    between atoms: _351  and  _354
REMARK  146  A    between atoms: _354  and  _355
REMARK  147  A    between atoms: _358  and  _360
REMARK  148  A    between atoms: _360  and  _361
REMARK  149  A    between atoms: _360  and  _363
REMARK  150  A    between atoms: _363  and  _364
REMARK  151  A    between atoms: _367  and  _369
REMARK  152  A    between atoms: _369  and  _370
REMARK  153  A    between atoms: _372  and  _374
REMARK  154  A    between atoms: _374  and  _375
REMARK  155  A    between atoms: _374  and  _377
REMARK  156  A    between atoms: _380  and  _382
REMARK  157  A    between atoms: _382  and  _383
REMARK  158  A    between atoms: _382  and  _385
REMARK  159  A    between atoms: _385  and  _386
REMARK  160  A    between atoms: _388  and  _390
REMARK  161  A    between atoms: _390  and  _391
REMARK  162  A    between atoms: _390  and  _393
REMARK  163  A    between atoms: _393  and  _394
REMARK  164  A    between atoms: _394  and  _395
REMARK  165  A    between atoms: _397  and  _399
REMARK  166  A    between atoms: _399  and  _400
REMARK  167  A    between atoms: _399  and  _402
REMARK  168  A    between atoms: _402  and  _403
REMARK  169  A    between atoms: _408  and  _409
REMARK  170  A    between atoms: _411  and  _413
REMARK  171  A    between atoms: _413  and  _414
REMARK  172  A    between atoms: _413  and  _416
REMARK  173  A    between atoms: _416  and  _417
REMARK  174  A    between atoms: _420  and  _422
REMARK  175  A    between atoms: _422  and  _423
REMARK  176  A    between atoms: _422  and  _425
REMARK  177  A    between atoms: _425  and  _426
REMARK  178  A    between atoms: _428  and  _430
REMARK  179  A    between atoms: _430  and  _431
REMARK  180  A    between atoms: _430  and  _433
REMARK  181  A    between atoms: _433  and  _434
REMARK  182  A    between atoms: _437  and  _439
REMARK  183  A    between atoms: _439  and  _440
REMARK  184  A    between atoms: _439  and  _442
REMARK  185  A    between atoms: _442  and  _443
REMARK  186  A    between atoms: _448  and  _449
REMARK  187  A    between atoms: _451  and  _453
REMARK  188  A    between atoms: _453  and  _454
REMARK  189  A    between atoms: _453  and  _456
REMARK  190  A    between atoms: _456  and  _457
REMARK  191  A    between atoms: _459  and  _461
REMARK  192  A    between atoms: _461  and  _462
REMARK  193  A    between atoms: _461  and  _464
REMARK  194  A    between atoms: _464  and  _465
REMARK  195  A    between atoms: _471  and  _473
REMARK  196  A    between atoms: _473  and  _474
REMARK  197  A    between atoms: _473  and  _476
REMARK  198  A    between atoms: _476  and  _477
REMARK  199  A    between atoms: _477  and  _478
REMARK  200  A    between atoms: _478  and  _479
REMARK  201  A    between atoms: _488  and  _490
REMARK  202  A    between atoms: _490  and  _491
REMARK  203  A    between atoms: _490  and  _493
REMARK  204  A    between atoms: _496  and  _498
REMARK  205  A    between atoms: _498  and  _499
REMARK  206  A    between atoms: _501  and  _503
REMARK  207  A    between atoms: _503  and  _504
REMARK  208  A    between atoms: _503  and  _506
REMARK  209  A    between atoms: _506  and  _507
REMARK  210  A    between atoms: _510  and  _512
REMARK  211  A    between atoms: _512  and  _513
REMARK  212  A    between atoms: _512  and  _515
REMARK  213  A    between atoms: _515  and  _516
REMARK  214  A    between atoms: _516  and  _517
REMARK  215  A    between atoms: _519  and  _521
REMARK  216  A    between atoms: _521  and  _522
REMARK  217  A    between atoms: _521  and  _524
REMARK  218  A    between atoms: _524  and  _525
REMARK  219  A    between atoms: _531  and  _533
REMARK  220  A    between atoms: _533  and  _534
REMARK  221  A    between atoms: _533  and  _536
REMARK  222  A    between atoms: _536  and  _537
REMARK  223  A    between atoms: _542  and  _544
REMARK  224  A    between atoms: _544  and  _545
REMARK  225  A    between atoms: _544  and  _547
REMARK  226  A    between atoms: _547  and  _548
REMARK  227  A    between atoms: _558  and  _560
REMARK  228  A    between atoms: _560  and  _561
REMARK  229  A    between atoms: _560  and  _563
REMARK  230  A    between atoms: _566  and  _568
REMARK  231  A    between atoms: _568  and  _569
REMARK  232  A    between atoms: _568  and  _571
REMARK  233  A    between atoms: _571  and  _572
REMARK  234  A    between atoms: _575  and  _577
REMARK  235  A    between atoms: _577  and  _578
REMARK  236  A    between atoms: _577  and  _580
REMARK  237  A    between atoms: _580  and  _581
REMARK  238  A    between atoms: _581  and  _582
REMARK  239  A    between atoms: _584  and  _586
REMARK  240  A    between atoms: _586  and  _587
REMARK  241  A    between atoms: _586  and  _589
REMARK  242  A    between atoms: _589  and  _590
REMARK  243  A    between atoms: _593  and  _595
REMARK  244  A    between atoms: _595  and  _596
REMARK  245  A    between atoms: _595  and  _598
REMARK  246  A    between atoms: _598  and  _599
REMARK  247  A    between atoms: _602  and  _604
REMARK  248  A    between atoms: _604  and  _605
REMARK  249  A    between atoms: _607  and  _609
REMARK  250  A    between atoms: _609  and  _610
REMARK  251  A    between atoms: _609  and  _612
REMARK  252  A    between atoms: _612  and  _613
REMARK  253  A    between atoms: _615  and  _617
REMARK  254  A    between atoms: _617  and  _618
REMARK  255  A    between atoms: _617  and  _620
REMARK  256  A    between atoms: _620  and  _621
REMARK  257  A    between atoms: _631  and  _633
REMARK  258  A    between atoms: _633  and  _634
REMARK  259  A    between atoms: _633  and  _636
REMARK  260  A    between atoms: _636  and  _637
REMARK  261  A    between atoms: _639  and  _641
REMARK  262  A    between atoms: _641  and  _642
REMARK  263  A    between atoms: _641  and  _644
REMARK  264  A    between atoms: _644  and  _645
REMARK  265  A    between atoms: _648  and  _650
REMARK  266  A    between atoms: _650  and  _651
REMARK  267  A    between atoms: _654  and  _656
REMARK  268  A    between atoms: _656  and  _657
REMARK  269  A    between atoms: _656  and  _659
REMARK  270  A    between atoms: _659  and  _660
REMARK  271  A    between atoms: _662  and  _664
REMARK  272  A    between atoms: _664  and  _665
REMARK  273  A    between atoms: _664  and  _667
REMARK  274  A    between atoms: _667  and  _668
REMARK  275  A    between atoms: _668  and  _669
REMARK  276  A    between atoms: _673  and  _674
REMARK  277  A    between atoms: _679  and  _681
REMARK  278  A    between atoms: _681  and  _682
REMARK  279  A    between atoms: _681  and  _684
REMARK  280  A    between atoms: _684  and  _685
REMARK  281  A    between atoms: _687  and  _689
REMARK  282  A    between atoms: _689  and  _690
REMARK  283  A    between atoms: _689  and  _692
REMARK  284  A    between atoms: _692  and  _693
REMARK  285  A    between atoms: _693  and  _694
REMARK  286  A    between atoms: _699  and  _701
REMARK  287  A    between atoms: _701  and  _702
REMARK  288  A    between atoms: _701  and  _704
REMARK  289  A    between atoms: _704  and  _705
REMARK  290  A    between atoms: _705  and  _706
REMARK  291  A    between atoms: _711  and  _713
REMARK  292  A    between atoms: _713  and  _714
REMARK  293  A    between atoms: _713  and  _716
REMARK  294  A    between atoms: _716  and  _717
REMARK  295  A    between atoms: _720  and  _722
REMARK  296  A    between atoms: _722  and  _723
REMARK  297  A    between atoms: _722  and  _725
REMARK  298  A    between atoms: _725  and  _726
REMARK  299  A    between atoms: _729  and  _731
REMARK  300  A    between atoms: _731  and  _732
REMARK  301  A    between atoms: _731  and  _734
REMARK  302  A    between atoms: _734  and  _735
REMARK  303  A    between atoms: _741  and  _743
REMARK  304  A    between atoms: _743  and  _744
REMARK  305  A    between atoms: _743  and  _746
REMARK  306  A    between atoms: _746  and  _747
REMARK  307  A    between atoms: _752  and  _753
REMARK  308  A    between atoms: _755  and  _757
REMARK  309  A    between atoms: _757  and  _758
REMARK  310  A    between atoms: _757  and  _760
REMARK  311  A    between atoms: _760  and  _761
REMARK  312  A    between atoms: _767  and  _769
REMARK  313  A    between atoms: _769  and  _770
REMARK  314  A    between atoms: _769  and  _772
REMARK  315  A    between atoms: _772  and  _773
REMARK  316  A    between atoms: _778  and  _780
REMARK  317  A    between atoms: _780  and  _781
REMARK  318  A    between atoms: _780  and  _783
REMARK  319  A    between atoms: _783  and  _784
REMARK  320  A    between atoms: _784  and  _785
REMARK                            x       y       z     vdW  Elec       q    Type
REMARK                         _______ _______ _______ _____ _____    ______ ____
ROOT
ATOM      1  C   GLN A   2      -1.241  52.612  18.675  0.00  0.00    +0.241 C 
ATOM      2  O   GLN A   2      -0.494  52.246  19.526  0.00  0.00    -0.273 OA
ATOM      3  N   SER A   3      -1.624  53.862  18.503  0.00  0.00    -0.295 N 
ATOM      4  H   SER A   3      -2.287  54.091  17.735  0.00  0.00    +0.150 HD
ENDROOT
BRANCH   3   5
ATOM      5  CA  SER A   3      -1.144  54.914  19.356  0.00  0.00    +0.178 C 
BRANCH   5   6
ATOM      6  C   SER A   3      -2.124  56.075  19.364  0.00  0.00    +0.243 C 
ATOM      7  N   ASP A   4      -2.476  56.525  20.544  0.00  0.00    -0.296 N 
ATOM      8  H   ASP A   4      -2.159  56.014  21.393  0.00  0.00    +0.150 HD
ATOM      9  O   SER A   3      -2.495  56.533  18.350  0.00  0.00    -0.273 OA
BRANCH   7  10
ATOM     10  CA  ASP A   4      -3.298  57.719  20.704  0.00  0.00    +0.160 C 
BRANCH  10  11
ATOM     11  C   ASP A   4      -2.476  59.040  20.678  0.00  0.00    +0.241 C 
ATOM     12  N   SER A   5      -1.173  58.917  20.799  0.00  0.00    -0.296 N 
ATOM     13  H   SER A   5      -0.769  57.978  20.994  0.00  0.00    +0.150 HD
ATOM     14  O   ASP A   4      -3.016  60.091  20.549  0.00  0.00    -0.273 OA
BRANCH  12  15
ATOM     15  CA  SER A   5      -0.272  60.068  20.667  0.00  0.00    +0.166 C 
BRANCH  15  16
ATOM     16  C   SER A   5       0.433  60.111  19.306  0.00  0.00    +0.229 C 
ATOM     17  O   SER A   5       0.667  59.114  18.705  0.00  0.00    -0.286 OA
ENDBRANCH  15  16
BRANCH  15  18
ATOM     18  CB  SER A   5       0.824  59.994  21.739  0.00  0.00    +0.165 C 
BRANCH  18  19
ATOM     19  OG  SER A   5       0.307  60.218  23.027  0.00  0.00    -0.380 OA
ATOM     20  H   SER A   5      -0.106  61.117  23.064  0.00  0.00    +0.211 HD
ENDBRANCH  18  19
ENDBRANCH  15  18
ENDBRANCH  12  15
ENDBRANCH  10  11
BRANCH  10  21
ATOM     21  CB  ASP A   4      -4.160  57.616  21.991  0.00  0.00    +0.143 C 
BRANCH  21  22
ATOM     22  CG  ASP A   4      -5.285  56.571  21.844  0.00  0.00    +0.367 C 
ATOM     23  OD2 ASP A   4      -5.518  55.809  22.745  0.00  0.00    -0.246 OA
ATOM     24  OD1 ASP A   4      -5.796  56.508  20.784  0.00  0.00    -0.246 OA
ENDBRANCH  21  22
ENDBRANCH  10  21
ENDBRANCH   7  10
ENDBRANCH   5   6
BRANCH   5  25
ATOM     25  CB  SER A   3       0.227  55.417  18.838  0.00  0.00    +0.166 C 
BRANCH  25  26
ATOM     26  OG  SER A   3       0.709  56.490  19.635  0.00  0.00    -0.380 OA
ATOM     27  H   SER A   3       0.815  56.183  20.570  0.00  0.00    +0.211 HD
ENDBRANCH  25  26
ENDBRANCH   5  25
ENDBRANCH   3   5
BRANCH   1  28
ATOM     28  CA  GLN A   2      -1.847  51.651  17.641  0.00  0.00    +0.149 C 
BRANCH  28  30
ATOM     29  C   TYR A   1      -0.200  51.714  15.884  0.00  0.00    +0.239 C 
ATOM     30  N   GLN A   2      -0.809  51.036  16.836  0.00  0.00    -0.297 N 
ATOM     31  H   GLN A   2      -0.542  50.047  17.012  0.00  0.00    +0.150 HD
ATOM     32  O   TYR A   1      -0.450  52.847  15.605  0.00  0.00    -0.274 OA
BRANCH  29  33
ATOM     33  CA  TYR A   1       0.876  50.951  15.121  0.00  0.00    +0.149 C 
BRANCH  33  34
ATOM     34  N   TYR A   1       0.655  51.139  13.681  0.00  0.00    -0.238 NA
ATOM     35  H   TYR A   1       0.740  52.099  13.291  0.00  0.00    +0.142 HD
ENDBRANCH  33  34
BRANCH  33  36
ATOM     36  CB  TYR A   1       2.312  51.422  15.511  0.00  0.00    +0.053 C 
BRANCH  36  37
ATOM     37  CG  TYR A   1       2.723  50.944  16.882  0.00  0.00    -0.020 A 
ATOM     38  CD2 TYR A   1       2.290  51.604  18.027  0.00  0.00    -0.001 A 
ATOM     39  CE2 TYR A   1       2.631  51.188  19.240  0.00  0.00    +0.036 A 
ATOM     40  CZ  TYR A   1       3.378  50.062  19.377  0.00  0.00    +0.134 A 
ATOM     41  CE1 TYR A   1       3.835  49.365  18.327  0.00  0.00    +0.036 A 
ATOM     42  CD1 TYR A   1       3.496  49.800  17.046  0.00  0.00    -0.001 A 
BRANCH  40  43
ATOM     43  OH  TYR A   1       3.716  49.657  20.650  0.00  0.00    -0.506 OA
ATOM     44  HH  TYR A   1       4.257  48.829  20.599  0.00  0.00    +0.292 HD
ENDBRANCH  40  43
ENDBRANCH  36  37
ENDBRANCH  33  36
ENDBRANCH  29  33
ENDBRANCH  28  30
BRANCH  28  45
ATOM     45  CB  GLN A   2      -2.690  50.576  18.337  0.00  0.00    +0.039 C 
BRANCH  45  46
ATOM     46  CG  GLN A   2      -3.933  51.200  19.038  0.00  0.00    +0.087 C 
BRANCH  46  47
ATOM     47  CD  GLN A   2      -4.756  50.129  19.706  0.00  0.00    +0.219 C 
ATOM     48  OE1 GLN A   2      -4.490  49.736  20.810  0.00  0.00    -0.275 OA
ATOM     49  NE2 GLN A   2      -5.760  49.653  18.994  0.00  0.00    -0.329 N 
ATOM     50 HE21 GLN A   2      -6.364  48.902  19.384  0.00  0.00    +0.145 HD
ATOM     51 HE22 GLN A   2      -5.947  50.029  18.042  0.00  0.00    +0.145 HD
ENDBRANCH  46  47
ENDBRANCH  45  46
ENDBRANCH  28  45
ENDBRANCH   1  28
TORSDOF 22
REMARK  Name = ../refined-set-2016/3drf/3drf_pocket.pdb
REMARK  320 active torsions:
REMARK  status: ('A' for Active; 'I' for Inactive)
REMARK    1  A    between atoms: _1  and  _3
REMARK    2  A    between atoms: _3  and  _4
REMARK    3  A    between atoms: _3  and  _6
REMARK    4  A    between atoms: _6  and  _7
REMARK    5  A    between atoms: _12  and  _13
REMARK    6  A    between atoms: _15  and  _17
REMARK    7  A    between atoms: _17  and  _18
REMARK    8  A    between atoms: _17  and  _20
REMARK    9  A    between atoms: _20  and  _21
REMARK   10  A    between atoms: _21  and  _22
REMARK   11  A    between atoms: _27  and  _29
REMARK   12  A    between atoms: _29  and  _30
REMARK   13  A    between atoms: _29  and  _32
REMARK   14  A    between atoms: _32  and  _33
REMARK   15  A    between atoms: _35  and  _37
REMARK   16  A    between atoms: _37  and  _38
REMARK   17  A    between atoms: _37  and  _40
REMARK   18  A    between atoms: _40  and  _41
REMARK   19  A    between atoms: _44  and  _46
REMARK   20  A    between atoms: _46  and  _47
REMARK   21  A    between atoms: _46  and  _49
REMARK   22  A    between atoms: _49  and  _50
REMARK   23  A    between atoms: _52  and  _54
REMARK   24  A    between atoms: _54  and  _55
REMARK   25  A    between atoms: _54  and  _57
REMARK   26  A    between atoms: _57  and  _58
REMARK   27  A    between atoms: _60  and  _62
REMARK   28  A    between atoms: _62  and  _63
REMARK   29  A    between atoms: _65  and  _67
REMARK   30  A    between atoms: _67  and  _68
REMARK   31  A    between atoms: _67  and  _70
REMARK   32  A    between atoms: _70  and  _71
REMARK   33  A    between atoms: _73  and  _75
REMARK   34  A    between atoms: _75  and  _76
REMARK   35  A    between atoms: _75  and  _78
REMARK   36  A    between atoms: _78  and  _79
REMARK   37  A    between atoms: _84  and  _86
REMARK   38  A    between atoms: _86  and  _87
REMARK   39  A    between atoms: _86  and  _89
REMARK   40  A    between atoms: _89  and  _90
REMARK   41  A    between atoms: _93  and  _95
REMARK   42  A    between atoms: _95  and  _96
REMARK   43  A    between atoms: _99  and  _101
REMARK   44  A    between atoms: _101  and  _102
REMARK   45  A    between atoms: _101  and  _104
REMARK   46  A    between atoms: _104  and  _105
REMARK   47  A    between atoms: _108  and  _110
REMARK   48  A    between atoms: _110  and  _111
REMARK   49  A    between atoms: _110  and  _113
REMARK   50  A    between atoms: _113  and  _114
REMARK   51  A    between atoms: _120  and  _122
REMARK   52  A    between atoms: _122  and  _123
REMARK   53  A    between atoms: _126  and  _128
REMARK   54  A    between atoms: _128  and  _129
REMARK   55  A    between atoms: _128  and  _131
REMARK   56  A    between atoms: _131  and  _132
REMARK   57  A    between atoms: _135  and  _137
REMARK   58  A    between atoms: _137  and  _138
REMARK   59  A    between atoms: _140  and  _142
REMARK   60  A    between atoms: _142  and  _143
REMARK   61  A    between atoms: _142  and  _145
REMARK   62  A    between atoms: _145  and  _146
REMARK   63  A    between atoms: _146  and  _147
REMARK   64  A    between atoms: _152  and  _154
REMARK   65  A    between atoms: _154  and  _155
REMARK   66  A    between atoms: _157  and  _159
REMARK   67  A    between atoms: _159  and  _160
REMARK   68  A    between atoms: _159  and  _162
REMARK   69  A    between atoms: _162  and  _163
REMARK   70  A    between atoms: _166  and  _168
REMARK   71  A    between atoms: _168  and  _169
REMARK   72  A    between atoms: _168  and  _171
REMARK   73  A    between atoms: _171  and  _172
REMARK   74  A    between atoms: _178  and  _180
REMARK   75  A    between atoms: _180  and  _181
REMARK   76  A    between atoms: _180  and  _183
REMARK   77  A    between atoms: _183  and  _184
REMARK   78  A    between atoms: _187  and  _189
REMARK   79  A    between atoms: _189  and  _190
REMARK   80  A    between atoms: _189  and  _192
REMARK   81  A    between atoms: _192  and  _193
REMARK   82  A    between atoms: _199  and  _201
REMARK   83  A    between atoms: _201  and  _202
REMARK   84  A    between atoms: _201  and  _204
REMARK   85  A    between atoms: _204  and  _205
REMARK   86  A    between atoms: _211  and  _213
REMARK   87  A    between atoms: _213  and  _214
REMARK   88  A    between atoms: _213  and  _216
REMARK   89  A    between atoms: _216  and  _217
REMARK   90  A    between atoms: _220  and  _222
REMARK   91  A    between atoms: _222  and  _223
REMARK   92  A    between atoms: _222  and  _225
REMARK   93  A    between atoms: _225  and  _226
REMARK   94  A    between atoms: _229  and  _231
REMARK   95  A    between atoms: _231  and  _232
REMARK   96  A    between atoms: _231  and  _234
REMARK   97  A    between atoms: _234  and  _235
REMARK   98  A    between atoms: _235  and  _236
REMARK   99  A    between atoms: _236  and  _237
REMARK  100  A    between atoms: _246  and  _248
REMARK  101  A    between atoms: _248  and  _249
REMARK  102  A    between atoms: _248  and  _251
REMARK  103  A    between atoms: _251  and  _252
REMARK  104  A    between atoms: _255  and  _257
REMARK  105  A    between atoms: _257  and  _258
REMARK  106  A    between atoms: _257  and  _260
REMARK  107  A    between atoms: _260  and  _261
REMARK  108  A    between atoms: _263  and  _265
REMARK  109  A    between atoms: _265  and  _266
REMARK  110  A    between atoms: _265  and  _268
REMARK  111  A    between atoms: _268  and  _269
REMARK  112  A    between atoms: _269  and  _270
REMARK  113  A    between atoms: _275  and  _277
REMARK  114  A    between atoms: _277  and  _278
REMARK  115  A    between atoms: _277  and  _280
REMARK  116  A    between atoms: _280  and  _281
REMARK  117  A    between atoms: _283  and  _285
REMARK  118  A    between atoms: _285  and  _286
REMARK  119  A    between atoms: _288  and  _290
REMARK  120  A    between atoms: _290  and  _291
REMARK  121  A    between atoms: _290  and  _293
REMARK  122  A    between atoms: _293  and  _294
REMARK  123  A    between atoms: _299  and  _301
REMARK  124  A    between atoms: _301  and  _302
REMARK  125  A    between atoms: _304  and  _306
REMARK  126  A    between atoms: _306  and  _307
REMARK  127  A    between atoms: _306  and  _309
REMARK  128  A    between atoms: _309  and  _310
REMARK  129  A    between atoms: _315  and  _316
REMARK  130  A    between atoms: _318  and  _320
REMARK  131  A    between atoms: _320  and  _321
REMARK  132  A    between atoms: _320  and  _323
REMARK  133  A    between atoms: _323  and  _324
REMARK  134  A    between atoms: _330  and  _332
REMARK  135  A    between atoms: _332  and  _333
REMARK  136  A    between atoms: _332  and  _335
REMARK  137  A    between atoms: _335  and  _336
REMARK  138  A    between atoms: _339  and  _341
REMARK  139  A    between atoms: _341  and  _342
REMARK  140  A    between atoms: _341  and  _344
REMARK  141  A    between atoms: _344  and  _345
REMARK  142  A    between atoms: _345  and  _346
REMARK  143  A    between atoms: _349  and  _351
REMARK  144  A    between atoms: _351  and  _352
REMARK  145  A    between atoms: _351  and  _354
REMARK  146  A    between atoms: _354  and  _355
REMARK  147  A    between atoms: _358  and  _360
REMARK  148  A    between atoms: _360  and  _361
REMARK  149  A    between atoms: _360  and  _363
REMARK  150  A    between atoms: _363  and  _364
REMARK  151  A    between atoms: _367  and  _369
REMARK  152  A    between atoms: _369  and  _370
REMARK  153  A    between atoms: _372  and  _374
REMARK  154  A    between atoms: _374  and  _375
REMARK  155  A    between atoms: _374  and  _377
REMARK  156  A    between atoms: _380  and  _382
REMARK  157  A    between atoms: _382  and  _383
REMARK  158  A    between atoms: _382  and  _385
REMARK  159  A    between atoms: _385  and  _386
REMARK  160  A    between atoms: _388  and  _390
REMARK  161  A    between atoms: _390  and  _391
REMARK  162  A    between atoms: _390  and  _393
REMARK  163  A    between atoms: _393  and  _394
REMARK  164  A    between atoms: _394  and  _395
REMARK  165  A    between atoms: _397  and  _399
REMARK  166  A    between atoms: _399  and  _400
REMARK  167  A    between atoms: _399  and  _402
REMARK  168  A    between atoms: _402  and  _403
REMARK  169  A    between atoms: _408  and  _409
REMARK  170  A    between atoms: _411  and  _413
REMARK  171  A    between atoms: _413  and  _414
REMARK  172  A    between atoms: _413  and  _416
REMARK  173  A    between atoms: _416  and  _417
REMARK  174  A    between atoms: _420  and  _422
REMARK  175  A    between atoms: _422  and  _423
REMARK  176  A    between atoms: _422  and  _425
REMARK  177  A    between atoms: _425  and  _426
REMARK  178  A    between atoms: _428  and  _430
REMARK  179  A    between atoms: _430  and  _431
REMARK  180  A    between atoms: _430  and  _433
REMARK  181  A    between atoms: _433  and  _434
REMARK  182  A    between atoms: _437  and  _439
REMARK  183  A    between atoms: _439  and  _440
REMARK  184  A    between atoms: _439  and  _442
REMARK  185  A    between atoms: _442  and  _443
REMARK  186  A    between atoms: _448  and  _449
REMARK  187  A    between atoms: _451  and  _453
REMARK  188  A    between atoms: _453  and  _454
REMARK  189  A    between atoms: _453  and  _456
REMARK  190  A    between atoms: _456  and  _457
REMARK  191  A    between atoms: _459  and  _461
REMARK  192  A    between atoms: _461  and  _462
REMARK  193  A    between atoms: _461  and  _464
REMARK  194  A    between atoms: _464  and  _465
REMARK  195  A    between atoms: _471  and  _473
REMARK  196  A    between atoms: _473  and  _474
REMARK  197  A    between atoms: _473  and  _476
REMARK  198  A    between atoms: _476  and  _477
REMARK  199  A    between atoms: _477  and  _478
REMARK  200  A    between atoms: _478  and  _479
REMARK  201  A    between atoms: _488  and  _490
REMARK  202  A    between atoms: _490  and  _491
REMARK  203  A    between atoms: _490  and  _493
REMARK  204  A    between atoms: _496  and  _498
REMARK  205  A    between atoms: _498  and  _499
REMARK  206  A    between atoms: _501  and  _503
REMARK  207  A    between atoms: _503  and  _504
REMARK  208  A    between atoms: _503  and  _506
REMARK  209  A    between atoms: _506  and  _507
REMARK  210  A    between atoms: _510  and  _512
REMARK  211  A    between atoms: _512  and  _513
REMARK  212  A    between atoms: _512  and  _515
REMARK  213  A    between atoms: _515  and  _516
REMARK  214  A    between atoms: _516  and  _517
REMARK  215  A    between atoms: _519  and  _521
REMARK  216  A    between atoms: _521  and  _522
REMARK  217  A    between atoms: _521  and  _524
REMARK  218  A    between atoms: _524  and  _525
REMARK  219  A    between atoms: _531  and  _533
REMARK  220  A    between atoms: _533  and  _534
REMARK  221  A    between atoms: _533  and  _536
REMARK  222  A    between atoms: _536  and  _537
REMARK  223  A    between atoms: _542  and  _544
REMARK  224  A    between atoms: _544  and  _545
REMARK  225  A    between atoms: _544  and  _547
REMARK  226  A    between atoms: _547  and  _548
REMARK  227  A    between atoms: _558  and  _560
REMARK  228  A    between atoms: _560  and  _561
REMARK  229  A    between atoms: _560  and  _563
REMARK  230  A    between atoms: _566  and  _568
REMARK  231  A    between atoms: _568  and  _569
REMARK  232  A    between atoms: _568  and  _571
REMARK  233  A    between atoms: _571  and  _572
REMARK  234  A    between atoms: _575  and  _577
REMARK  235  A    between atoms: _577  and  _578
REMARK  236  A    between atoms: _577  and  _580
REMARK  237  A    between atoms: _580  and  _581
REMARK  238  A    between atoms: _581  and  _582
REMARK  239  A    between atoms: _584  and  _586
REMARK  240  A    between atoms: _586  and  _587
REMARK  241  A    between atoms: _586  and  _589
REMARK  242  A    between atoms: _589  and  _590
REMARK  243  A    between atoms: _593  and  _595
REMARK  244  A    between atoms: _595  and  _596
REMARK  245  A    between atoms: _595  and  _598
REMARK  246  A    between atoms: _598  and  _599
REMARK  247  A    between atoms: _602  and  _604
REMARK  248  A    between atoms: _604  and  _605
REMARK  249  A    between atoms: _607  and  _609
REMARK  250  A    between atoms: _609  and  _610
REMARK  251  A    between atoms: _609  and  _612
REMARK  252  A    between atoms: _612  and  _613
REMARK  253  A    between atoms: _615  and  _617
REMARK  254  A    between atoms: _617  and  _618
REMARK  255  A    between atoms: _617  and  _620
REMARK  256  A    between atoms: _620  and  _621
REMARK  257  A    between atoms: _631  and  _633
REMARK  258  A    between atoms: _633  and  _634
REMARK  259  A    between atoms: _633  and  _636
REMARK  260  A    between atoms: _636  and  _637
REMARK  261  A    between atoms: _639  and  _641
REMARK  262  A    between atoms: _641  and  _642
REMARK  263  A    between atoms: _641  and  _644
REMARK  264  A    between atoms: _644  and  _645
REMARK  265  A    between atoms: _648  and  _650
REMARK  266  A    between atoms: _650  and  _651
REMARK  267  A    between atoms: _654  and  _656
REMARK  268  A    between atoms: _656  and  _657
REMARK  269  A    between atoms: _656  and  _659
REMARK  270  A    between atoms: _659  and  _660
REMARK  271  A    between atoms: _662  and  _664
REMARK  272  A    between atoms: _664  and  _665
REMARK  273  A    between atoms: _664  and  _667
REMARK  274  A    between atoms: _667  and  _668
REMARK  275  A    between atoms: _668  and  _669
REMARK  276  A    between atoms: _673  and  _674
REMARK  277  A    between atoms: _679  and  _681
REMARK  278  A    between atoms: _681  and  _682
REMARK  279  A    between atoms: _681  and  _684
REMARK  280  A    between atoms: _684  and  _685
REMARK  281  A    between atoms: _687  and  _689
REMARK  282  A    between atoms: _689  and  _690
REMARK  283  A    between atoms: _689  and  _692
REMARK  284  A    between atoms: _692  and  _693
REMARK  285  A    between atoms: _693  and  _694
REMARK  286  A    between atoms: _699  and  _701
REMARK  287  A    between atoms: _701  and  _702
REMARK  288  A    between atoms: _701  and  _704
REMARK  289  A    between atoms: _704  and  _705
REMARK  290  A    between atoms: _705  and  _706
REMARK  291  A    between atoms: _711  and  _713
REMARK  292  A    between atoms: _713  and  _714
REMARK  293  A    between atoms: _713  and  _716
REMARK  294  A    between atoms: _716  and  _717
REMARK  295  A    between atoms: _720  and  _722
REMARK  296  A    between atoms: _722  and  _723
REMARK  297  A    between atoms: _722  and  _725
REMARK  298  A    between atoms: _725  and  _726
REMARK  299  A    between atoms: _729  and  _731
REMARK  300  A    between atoms: _731  and  _732
REMARK  301  A    between atoms: _731  and  _734
REMARK  302  A    between atoms: _734  and  _735
REMARK  303  A    between atoms: _741  and  _743
REMARK  304  A    between atoms: _743  and  _744
REMARK  305  A    between atoms: _743  and  _746
REMARK  306  A    between atoms: _746  and  _747
REMARK  307  A    between atoms: _752  and  _753
REMARK  308  A    between atoms: _755  and  _757
REMARK  309  A    between atoms: _757  and  _758
REMARK  310  A    between atoms: _757  and  _760
REMARK  311  A    between atoms: _760  and  _761
REMARK  312  A    between atoms: _767  and  _769
REMARK  313  A    between atoms: _769  and  _770
REMARK  314  A    between atoms: _769  and  _772
REMARK  315  A    between atoms: _772  and  _773
REMARK  316  A    between atoms: _778  and  _780
REMARK  317  A    between atoms: _780  and  _781
REMARK  318  A    between atoms: _780  and  _783
REMARK  319  A    between atoms: _783  and  _784
REMARK  320  A    between atoms: _784  and  _785
REMARK                            x       y       z     vdW  Elec       q    Type
REMARK                         _______ _______ _______ _____ _____    ______ ____
ROOT
ATOM      1  C   SER A   1      18.730  55.311  20.393  0.00  0.00    +0.241 C 
ATOM      2  O   SER A   1      17.871  55.367  21.275  0.00  0.00    -0.274 OA
ATOM      3  N   GLY A   2      19.906  55.905  20.523  0.00  0.00    -0.296 N 
ATOM      4  H   GLY A   2      20.550  55.939  19.707  0.00  0.00    +0.150 HD
ENDROOT
BRANCH   1   5
ATOM      5  CA  SER A   1      18.456  54.578  19.090  0.00  0.00    +0.174 C 
BRANCH   5   6
ATOM      6  N   SER A   1      18.875  55.353  17.914  0.00  0.00    -0.236 NA
ATOM      7  H   SER A   1      19.477  54.911  17.190  0.00  0.00    +0.142 HD
ENDBRANCH   5   6
BRANCH   5   8
ATOM      8  CB  SER A   1      19.153  53.215  19.096  0.00  0.00    +0.163 C 
BRANCH   8   9
ATOM      9  OG  SER A   1      18.703  52.380  20.140  0.00  0.00    -0.380 OA
ATOM     10  H   SER A   1      18.881  52.817  21.010  0.00  0.00    +0.211 HD
ENDBRANCH   8   9
ENDBRANCH   5   8
ENDBRANCH   1   5
BRANCH   3  11
ATOM     11  CA  GLY A   2      20.318  56.509  21.776  0.00  0.00    +0.163 C 
BRANCH  11  12
ATOM     12  C   GLY A   2      19.415  57.652  22.195  0.00  0.00    +0.229 C 
ATOM     13  O   GLY A   2      19.318  57.979  23.378  0.00  0.00    -0.286 OA
ENDBRANCH  11  12
ENDBRANCH   3  11
TORSDOF 6
REMARK  Name = ../refined-set-2016/3drf/3drf_pocket.pdb
REMARK  320 active torsions:
REMARK  status: ('A' for Active; 'I' for Inactive)
REMARK    1  A    between atoms: _1  and  _3
REMARK    2  A    between atoms: _3  and  _4
REMARK    3  A    between atoms: _3  and  _6
REMARK    4  A    between atoms: _6  and  _7
REMARK    5  A    between atoms: _12  and  _13
REMARK    6  A    between atoms: _15  and  _17
REMARK    7  A    between atoms: _17  and  _18
REMARK    8  A    between atoms: _17  and  _20
REMARK    9  A    between atoms: _20  and  _21
REMARK   10  A    between atoms: _21  and  _22
REMARK   11  A    between atoms: _27  and  _29
REMARK   12  A    between atoms: _29  and  _30
REMARK   13  A    between atoms: _29  and  _32
REMARK   14  A    between atoms: _32  and  _33
REMARK   15  A    between atoms: _35  and  _37
REMARK   16  A    between atoms: _37  and  _38
REMARK   17  A    between atoms: _37  and  _40
REMARK   18  A    between atoms: _40  and  _41
REMARK   19  A    between atoms: _44  and  _46
REMARK   20  A    between atoms: _46  and  _47
REMARK   21  A    between atoms: _46  and  _49
REMARK   22  A    between atoms: _49  and  _50
REMARK   23  A    between atoms: _52  and  _54
REMARK   24  A    between atoms: _54  and  _55
REMARK   25  A    between atoms: _54  and  _57
REMARK   26  A    between atoms: _57  and  _58
REMARK   27  A    between atoms: _60  and  _62
REMARK   28  A    between atoms: _62  and  _63
REMARK   29  A    between atoms: _65  and  _67
REMARK   30  A    between atoms: _67  and  _68
REMARK   31  A    between atoms: _67  and  _70
REMARK   32  A    between atoms: _70  and  _71
REMARK   33  A    between atoms: _73  and  _75
REMARK   34  A    between atoms: _75  and  _76
REMARK   35  A    between atoms: _75  and  _78
REMARK   36  A    between atoms: _78  and  _79
REMARK   37  A    between atoms: _84  and  _86
REMARK   38  A    between atoms: _86  and  _87
REMARK   39  A    between atoms: _86  and  _89
REMARK   40  A    between atoms: _89  and  _90
REMARK   41  A    between atoms: _93  and  _95
REMARK   42  A    between atoms: _95  and  _96
REMARK   43  A    between atoms: _99  and  _101
REMARK   44  A    between atoms: _101  and  _102
REMARK   45  A    between atoms: _101  and  _104
REMARK   46  A    between atoms: _104  and  _105
REMARK   47  A    between atoms: _108  and  _110
REMARK   48  A    between atoms: _110  and  _111
REMARK   49  A    between atoms: _110  and  _113
REMARK   50  A    between atoms: _113  and  _114
REMARK   51  A    between atoms: _120  and  _122
REMARK   52  A    between atoms: _122  and  _123
REMARK   53  A    between atoms: _126  and  _128
REMARK   54  A    between atoms: _128  and  _129
REMARK   55  A    between atoms: _128  and  _131
REMARK   56  A    between atoms: _131  and  _132
REMARK   57  A    between atoms: _135  and  _137
REMARK   58  A    between atoms: _137  and  _138
REMARK   59  A    between atoms: _140  and  _142
REMARK   60  A    between atoms: _142  and  _143
REMARK   61  A    between atoms: _142  and  _145
REMARK   62  A    between atoms: _145  and  _146
REMARK   63  A    between atoms: _146  and  _147
REMARK   64  A    between atoms: _152  and  _154
REMARK   65  A    between atoms: _154  and  _155
REMARK   66  A    between atoms: _157  and  _159
REMARK   67  A    between atoms: _159  and  _160
REMARK   68  A    between atoms: _159  and  _162
REMARK   69  A    between atoms: _162  and  _163
REMARK   70  A    between atoms: _166  and  _168
REMARK   71  A    between atoms: _168  and  _169
REMARK   72  A    between atoms: _168  and  _171
REMARK   73  A    between atoms: _171  and  _172
REMARK   74  A    between atoms: _178  and  _180
REMARK   75  A    between atoms: _180  and  _181
REMARK   76  A    between atoms: _180  and  _183
REMARK   77  A    between atoms: _183  and  _184
REMARK   78  A    between atoms: _187  and  _189
REMARK   79  A    between atoms: _189  and  _190
REMARK   80  A    between atoms: _189  and  _192
REMARK   81  A    between atoms: _192  and  _193
REMARK   82  A    between atoms: _199  and  _201
REMARK   83  A    between atoms: _201  and  _202
REMARK   84  A    between atoms: _201  and  _204
REMARK   85  A    between atoms: _204  and  _205
REMARK   86  A    between atoms: _211  and  _213
REMARK   87  A    between atoms: _213  and  _214
REMARK   88  A    between atoms: _213  and  _216
REMARK   89  A    between atoms: _216  and  _217
REMARK   90  A    between atoms: _220  and  _222
REMARK   91  A    between atoms: _222  and  _223
REMARK   92  A    between atoms: _222  and  _225
REMARK   93  A    between atoms: _225  and  _226
REMARK   94  A    between atoms: _229  and  _231
REMARK   95  A    between atoms: _231  and  _232
REMARK   96  A    between atoms: _231  and  _234
REMARK   97  A    between atoms: _234  and  _235
REMARK   98  A    between atoms: _235  and  _236
REMARK   99  A    between atoms: _236  and  _237
REMARK  100  A    between atoms: _246  and  _248
REMARK  101  A    between atoms: _248  and  _249
REMARK  102  A    between atoms: _248  and  _251
REMARK  103  A    between atoms: _251  and  _252
REMARK  104  A    between atoms: _255  and  _257
REMARK  105  A    between atoms: _257  and  _258
REMARK  106  A    between atoms: _257  and  _260
REMARK  107  A    between atoms: _260  and  _261
REMARK  108  A    between atoms: _263  and  _265
REMARK  109  A    between atoms: _265  and  _266
REMARK  110  A    between atoms: _265  and  _268
REMARK  111  A    between atoms: _268  and  _269
REMARK  112  A    between atoms: _269  and  _270
REMARK  113  A    between atoms: _275  and  _277
REMARK  114  A    between atoms: _277  and  _278
REMARK  115  A    between atoms: _277  and  _280
REMARK  116  A    between atoms: _280  and  _281
REMARK  117  A    between atoms: _283  and  _285
REMARK  118  A    between atoms: _285  and  _286
REMARK  119  A    between atoms: _288  and  _290
REMARK  120  A    between atoms: _290  and  _291
REMARK  121  A    between atoms: _290  and  _293
REMARK  122  A    between atoms: _293  and  _294
REMARK  123  A    between atoms: _299  and  _301
REMARK  124  A    between atoms: _301  and  _302
REMARK  125  A    between atoms: _304  and  _306
REMARK  126  A    between atoms: _306  and  _307
REMARK  127  A    between atoms: _306  and  _309
REMARK  128  A    between atoms: _309  and  _310
REMARK  129  A    between atoms: _315  and  _316
REMARK  130  A    between atoms: _318  and  _320
REMARK  131  A    between atoms: _320  and  _321
REMARK  132  A    between atoms: _320  and  _323
REMARK  133  A    between atoms: _323  and  _324
REMARK  134  A    between atoms: _330  and  _332
REMARK  135  A    between atoms: _332  and  _333
REMARK  136  A    between atoms: _332  and  _335
REMARK  137  A    between atoms: _335  and  _336
REMARK  138  A    between atoms: _339  and  _341
REMARK  139  A    between atoms: _341  and  _342
REMARK  140  A    between atoms: _341  and  _344
REMARK  141  A    between atoms: _344  and  _345
REMARK  142  A    between atoms: _345  and  _346
REMARK  143  A    between atoms: _349  and  _351
REMARK  144  A    between atoms: _351  and  _352
REMARK  145  A    between atoms: _351  and  _354
REMARK  146  A    between atoms: _354  and  _355
REMARK  147  A    between atoms: _358  and  _360
REMARK  148  A    between atoms: _360  and  _361
REMARK  149  A    between atoms: _360  and  _363
REMARK  150  A    between atoms: _363  and  _364
REMARK  151  A    between atoms: _367  and  _369
REMARK  152  A    between atoms: _369  and  _370
REMARK  153  A    between atoms: _372  and  _374
REMARK  154  A    between atoms: _374  and  _375
REMARK  155  A    between atoms: _374  and  _377
REMARK  156  A    between atoms: _380  and  _382
REMARK  157  A    between atoms: _382  and  _383
REMARK  158  A    between atoms: _382  and  _385
REMARK  159  A    between atoms: _385  and  _386
REMARK  160  A    between atoms: _388  and  _390
REMARK  161  A    between atoms: _390  and  _391
REMARK  162  A    between atoms: _390  and  _393
REMARK  163  A    between atoms: _393  and  _394
REMARK  164  A    between atoms: _394  and  _395
REMARK  165  A    between atoms: _397  and  _399
REMARK  166  A    between atoms: _399  and  _400
REMARK  167  A    between atoms: _399  and  _402
REMARK  168  A    between atoms: _402  and  _403
REMARK  169  A    between atoms: _408  and  _409
REMARK  170  A    between atoms: _411  and  _413
REMARK  171  A    between atoms: _413  and  _414
REMARK  172  A    between atoms: _413  and  _416
REMARK  173  A    between atoms: _416  and  _417
REMARK  174  A    between atoms: _420  and  _422
REMARK  175  A    between atoms: _422  and  _423
REMARK  176  A    between atoms: _422  and  _425
REMARK  177  A    between atoms: _425  and  _426
REMARK  178  A    between atoms: _428  and  _430
REMARK  179  A    between atoms: _430  and  _431
REMARK  180  A    between atoms: _430  and  _433
REMARK  181  A    between atoms: _433  and  _434
REMARK  182  A    between atoms: _437  and  _439
REMARK  183  A    between atoms: _439  and  _440
REMARK  184  A    between atoms: _439  and  _442
REMARK  185  A    between atoms: _442  and  _443
REMARK  186  A    between atoms: _448  and  _449
REMARK  187  A    between atoms: _451  and  _453
REMARK  188  A    between atoms: _453  and  _454
REMARK  189  A    between atoms: _453  and  _456
REMARK  190  A    between atoms: _456  and  _457
REMARK  191  A    between atoms: _459  and  _461
REMARK  192  A    between atoms: _461  and  _462
REMARK  193  A    between atoms: _461  and  _464
REMARK  194  A    between atoms: _464  and  _465
REMARK  195  A    between atoms: _471  and  _473
REMARK  196  A    between atoms: _473  and  _474
REMARK  197  A    between atoms: _473  and  _476
REMARK  198  A    between atoms: _476  and  _477
REMARK  199  A    between atoms: _477  and  _478
REMARK  200  A    between atoms: _478  and  _479
REMARK  201  A    between atoms: _488  and  _490
REMARK  202  A    between atoms: _490  and  _491
REMARK  203  A    between atoms: _490  and  _493
REMARK  204  A    between atoms: _496  and  _498
REMARK  205  A    between atoms: _498  and  _499
REMARK  206  A    between atoms: _501  and  _503
REMARK  207  A    between atoms: _503  and  _504
REMARK  208  A    between atoms: _503  and  _506
REMARK  209  A    between atoms: _506  and  _507
REMARK  210  A    between atoms: _510  and  _512
REMARK  211  A    between atoms: _512  and  _513
REMARK  212  A    between atoms: _512  and  _515
REMARK  213  A    between atoms: _515  and  _516
REMARK  214  A    between atoms: _516  and  _517
REMARK  215  A    between atoms: _519  and  _521
REMARK  216  A    between atoms: _521  and  _522
REMARK  217  A    between atoms: _521  and  _524
REMARK  218  A    between atoms: _524  and  _525
REMARK  219  A    between atoms: _531  and  _533
REMARK  220  A    between atoms: _533  and  _534
REMARK  221  A    between atoms: _533  and  _536
REMARK  222  A    between atoms: _536  and  _537
REMARK  223  A    between atoms: _542  and  _544
REMARK  224  A    between atoms: _544  and  _545
REMARK  225  A    between atoms: _544  and  _547
REMARK  226  A    between atoms: _547  and  _548
REMARK  227  A    between atoms: _558  and  _560
REMARK  228  A    between atoms: _560  and  _561
REMARK  229  A    between atoms: _560  and  _563
REMARK  230  A    between atoms: _566  and  _568
REMARK  231  A    between atoms: _568  and  _569
REMARK  232  A    between atoms: _568  and  _571
REMARK  233  A    between atoms: _571  and  _572
REMARK  234  A    between atoms: _575  and  _577
REMARK  235  A    between atoms: _577  and  _578
REMARK  236  A    between atoms: _577  and  _580
REMARK  237  A    between atoms: _580  and  _581
REMARK  238  A    between atoms: _581  and  _582
REMARK  239  A    between atoms: _584  and  _586
REMARK  240  A    between atoms: _586  and  _587
REMARK  241  A    between atoms: _586  and  _589
REMARK  242  A    between atoms: _589  and  _590
REMARK  243  A    between atoms: _593  and  _595
REMARK  244  A    between atoms: _595  and  _596
REMARK  245  A    between atoms: _595  and  _598
REMARK  246  A    between atoms: _598  and  _599
REMARK  247  A    between atoms: _602  and  _604
REMARK  248  A    between atoms: _604  and  _605
REMARK  249  A    between atoms: _607  and  _609
REMARK  250  A    between atoms: _609  and  _610
REMARK  251  A    between atoms: _609  and  _612
REMARK  252  A    between atoms: _612  and  _613
REMARK  253  A    between atoms: _615  and  _617
REMARK  254  A    between atoms: _617  and  _618
REMARK  255  A    between atoms: _617  and  _620
REMARK  256  A    between atoms: _620  and  _621
REMARK  257  A    between atoms: _631  and  _633
REMARK  258  A    between atoms: _633  and  _634
REMARK  259  A    between atoms: _633  and  _636
REMARK  260  A    between atoms: _636  and  _637
REMARK  261  A    between atoms: _639  and  _641
REMARK  262  A    between atoms: _641  and  _642
REMARK  263  A    between atoms: _641  and  _644
REMARK  264  A    between atoms: _644  and  _645
REMARK  265  A    between atoms: _648  and  _650
REMARK  266  A    between atoms: _650  and  _651
REMARK  267  A    between atoms: _654  and  _656
REMARK  268  A    between atoms: _656  and  _657
REMARK  269  A    between atoms: _656  and  _659
REMARK  270  A    between atoms: _659  and  _660
REMARK  271  A    between atoms: _662  and  _664
REMARK  272  A    between atoms: _664  and  _665
REMARK  273  A    between atoms: _664  and  _667
REMARK  274  A    between atoms: _667  and  _668
REMARK  275  A    between atoms: _668  and  _669
REMARK  276  A    between atoms: _673  and  _674
REMARK  277  A    between atoms: _679  and  _681
REMARK  278  A    between atoms: _681  and  _682
REMARK  279  A    between atoms: _681  and  _684
REMARK  280  A    between atoms: _684  and  _685
REMARK  281  A    between atoms: _687  and  _689
REMARK  282  A    between atoms: _689  and  _690
REMARK  283  A    between atoms: _689  and  _692
REMARK  284  A    between atoms: _692  and  _693
REMARK  285  A    between atoms: _693  and  _694
REMARK  286  A    between atoms: _699  and  _701
REMARK  287  A    between atoms: _701  and  _702
REMARK  288  A    between atoms: _701  and  _704
REMARK  289  A    between atoms: _704  and  _705
REMARK  290  A    between atoms: _705  and  _706
REMARK  291  A    between atoms: _711  and  _713
REMARK  292  A    between atoms: _713  and  _714
REMARK  293  A    between atoms: _713  and  _716
REMARK  294  A    between atoms: _716  and  _717
REMARK  295  A    between atoms: _720  and  _722
REMARK  296  A    between atoms: _722  and  _723
REMARK  297  A    between atoms: _722  and  _725
REMARK  298  A    between atoms: _725  and  _726
REMARK  299  A    between atoms: _729  and  _731
REMARK  300  A    between atoms: _731  and  _732
REMARK  301  A    between atoms: _731  and  _734
REMARK  302  A    between atoms: _734  and  _735
REMARK  303  A    between atoms: _741  and  _743
REMARK  304  A    between atoms: _743  and  _744
REMARK  305  A    between atoms: _743  and  _746
REMARK  306  A    between atoms: _746  and  _747
REMARK  307  A    between atoms: _752  and  _753
REMARK  308  A    between atoms: _755  and  _757
REMARK  309  A    between atoms: _757  and  _758
REMARK  310  A    between atoms: _757  and  _760
REMARK  311  A    between atoms: _760  and  _761
REMARK  312  A    between atoms: _767  and  _769
REMARK  313  A    between atoms: _769  and  _770
REMARK  314  A    between atoms: _769  and  _772
REMARK  315  A    between atoms: _772  and  _773
REMARK  316  A    between atoms: _778  and  _780
REMARK  317  A    between atoms: _780  and  _781
REMARK  318  A    between atoms: _780  and  _783
REMARK  319  A    between atoms: _783  and  _784
REMARK  320  A    between atoms: _784  and  _785
REMARK                            x       y       z     vdW  Elec       q    Type
REMARK                         _______ _______ _______ _____ _____    ______ ____
ROOT
ATOM      1  C   ALA A   4       7.664  51.769  20.465  0.00  0.00    +0.241 C 
ATOM      2  N   THR A   5       6.841  52.793  20.440  0.00  0.00    -0.295 N 
ATOM      3  H   THR A   5       6.757  53.395  21.284  0.00  0.00    +0.150 HD
ATOM      4  O   ALA A   4       7.811  51.035  19.546  0.00  0.00    -0.273 OA
ENDROOT
BRANCH   1   5
ATOM      5  CA  ALA A   4       8.423  51.526  21.783  0.00  0.00    +0.149 C 
ATOM      6  CB  ALA A   4       7.677  50.531  22.682  0.00  0.00    +0.031 C 
BRANCH   5   8
ATOM      7  C   ASP A   3       9.464  53.698  22.163  0.00  0.00    +0.241 C 
ATOM      8  N   ALA A   4       8.608  52.762  22.516  0.00  0.00    -0.297 N 
ATOM      9  H   ALA A   4       8.033  52.919  23.368  0.00  0.00    +0.150 HD
ATOM     10  O   ASP A   3      10.125  53.630  21.147  0.00  0.00    -0.273 OA
BRANCH   7  11
ATOM     11  CA  ASP A   3       9.525  54.875  23.124  0.00  0.00    +0.160 C 
BRANCH  11  14
ATOM     12  C   ASN A   2      11.620  55.371  24.250  0.00  0.00    +0.241 C 
ATOM     13  O   ASN A   2      11.441  54.587  25.102  0.00  0.00    -0.273 OA
ATOM     14  N   ASP A   3      10.853  55.526  23.195  0.00  0.00    -0.297 N 
ATOM     15  H   ASP A   3      11.182  56.112  22.401  0.00  0.00    +0.150 HD
BRANCH  12  16
ATOM     16  CA  ASN A   2      12.827  56.297  24.365  0.00  0.00    +0.158 C 
BRANCH  16  18
ATOM     17  C   SER A   1      14.275  56.671  22.425  0.00  0.00    +0.241 C 
ATOM     18  N   ASN A   2      13.208  57.009  23.132  0.00  0.00    -0.297 N 
ATOM     19  H   ASN A   2      12.620  57.803  22.807  0.00  0.00    +0.150 HD
ATOM     20  O   SER A   1      14.918  55.724  22.659  0.00  0.00    -0.274 OA
BRANCH  17  21
ATOM     21  CA  SER A   1      14.626  57.536  21.223  0.00  0.00    +0.174 C 
BRANCH  21  22
ATOM     22  N   SER A   1      16.037  57.943  21.327  0.00  0.00    -0.236 NA
ATOM     23  H   SER A   1      16.773  57.219  21.204  0.00  0.00    +0.142 HD
ENDBRANCH  21  22
BRANCH  21  24
ATOM     24  CB  SER A   1      14.496  56.716  19.930  0.00  0.00    +0.163 C 
BRANCH  24  25
ATOM     25  OG  SER A   1      13.177  56.159  19.812  0.00  0.00    -0.380 OA
ATOM     26  H   SER A   1      12.511  56.891  19.795  0.00  0.00    +0.211 HD
ENDBRANCH  24  25
ENDBRANCH  21  24
ENDBRANCH  17  21
ENDBRANCH  16  18
BRANCH  16  27
ATOM     27  CB  ASN A   2      12.551  57.302  25.486  0.00  0.00    +0.114 C 
BRANCH  27  28
ATOM     28  CG  ASN A   2      13.777  58.121  25.876  0.00  0.00    +0.222 C 
ATOM     29  ND2 ASN A   2      13.562  59.364  26.074  0.00  0.00    -0.329 N 
ATOM     30 HD21 ASN A   2      14.336  59.981  26.393  0.00  0.00    +0.145 HD
ATOM     31 HD22 ASN A   2      12.613  59.759  25.916  0.00  0.00    +0.145 HD
ATOM     32  OD1 ASN A   2      14.838  57.631  26.043  0.00  0.00    -0.275 OA
ENDBRANCH  27  28
ENDBRANCH  16  27
ENDBRANCH  12  16
ENDBRANCH  11  14
BRANCH  11  33
ATOM     33  CB  ASP A   3       8.483  55.943  22.741  0.00  0.00    +0.143 C 
BRANCH  33  34
ATOM     34  CG  ASP A   3       8.741  56.514  21.339  0.00  0.00    +0.367 C 
ATOM     35  OD2 ASP A   3       9.631  57.366  21.252  0.00  0.00    -0.246 OA
ATOM     36  OD1 ASP A   3       8.117  56.111  20.391  0.00  0.00    -0.246 OA
ENDBRANCH  33  34
ENDBRANCH  11  33
ENDBRANCH   7  11
ENDBRANCH   5   8
ENDBRANCH   1   5
BRANCH   2  37
ATOM     37  CA  THR A   5       6.027  53.115  19.241  0.00  0.00    +0.176 C 
BRANCH  37  38
ATOM     38  C   THR A   5       6.946  53.355  18.026  0.00  0.00    +0.243 C 
ATOM     39  N   PHE A   6       7.852  54.304  18.140  0.00  0.00    -0.297 N 
ATOM     40  H   PHE A   6       7.945  54.846  19.023  0.00  0.00    +0.150 HD
ATOM     41  O   THR A   5       6.874  52.677  17.049  0.00  0.00    -0.273 OA
BRANCH  39  42
ATOM     42  CA  PHE A   6       8.726  54.581  16.996  0.00  0.00    +0.153 C 
BRANCH  42  43
ATOM     43  C   PHE A   6       9.779  53.464  16.780  0.00  0.00    +0.241 C 
ATOM     44  N   ALA A   7      10.280  52.877  17.860  0.00  0.00    -0.297 N 
ATOM     45  H   ALA A   7      10.025  53.217  18.809  0.00  0.00    +0.150 HD
ATOM     46  O   PHE A   6      10.104  53.122  15.663  0.00  0.00    -0.273 OA
BRANCH  44  47
ATOM     47  CA  ALA A   7      11.191  51.751  17.701  0.00  0.00    +0.149 C 
ATOM     48  CB  ALA A   7      11.579  51.169  19.076  0.00  0.00    +0.031 C 
BRANCH  47  49
ATOM     49  C   ALA A   7      10.556  50.660  16.820  0.00  0.00    +0.241 C 
ATOM     50  N   THR A   8       9.277  50.399  17.050  0.00  0.00    -0.296 N 
ATOM     51  H   THR A   8       8.779  50.908  17.808  0.00  0.00    +0.150 HD
ATOM     52  O   ALA A   7      11.149  50.169  15.973  0.00  0.00    -0.273 OA
BRANCH  50  53
ATOM     53  CA  THR A   8       8.553  49.405  16.254  0.00  0.00    +0.164 C 
BRANCH  53  54
ATOM     54  C   THR A   8       8.343  49.886  14.797  0.00  0.00    +0.229 C 
ATOM     55  O   THR A   8       8.626  49.177  13.892  0.00  0.00    -0.286 OA
ENDBRANCH  53  54
BRANCH  53  56
ATOM     56  CB  THR A   8       7.225  49.055  16.886  0.00  0.00    +0.136 C 
ATOM     57  CG2 THR A   8       6.507  48.017  16.038  0.00  0.00    +0.034 C 
BRANCH  56  58
ATOM     58  OG1 THR A   8       7.466  48.476  18.172  0.00  0.00    -0.382 OA
ATOM     59  HG1 THR A   8       7.948  49.127  18.741  0.00  0.00    +0.210 HD
ENDBRANCH  56  58
ENDBRANCH  53  56
ENDBRANCH  50  53
ENDBRANCH  47  49
ENDBRANCH  44  47
ENDBRANCH  42  43
BRANCH  42  60
ATOM     60  CB  PHE A   6       9.417  55.963  17.062  0.00  0.00    +0.055 C 
BRANCH  60  61
ATOM     61  CG  PHE A   6      10.018  56.279  15.750  0.00  0.00    -0.020 A 
ATOM     62  CD2 PHE A   6      11.378  56.043  15.547  0.00  0.00    -0.004 A 
ATOM     63  CE2 PHE A   6      11.911  56.220  14.305  0.00  0.00    -0.000 A 
ATOM     64  CZ  PHE A   6      11.185  56.547  13.298  0.00  0.00    -0.000 A 
ATOM     65  CE1 PHE A   6       9.815  56.733  13.405  0.00  0.00    -0.000 A 
ATOM     66  CD1 PHE A   6       9.220  56.550  14.686  0.00  0.00    -0.004 A 
ENDBRANCH  60  61
ENDBRANCH  42  60
ENDBRANCH  39  42
ENDBRANCH  37  38
BRANCH  37  67
ATOM     67  CB  THR A   5       5.175  54.337  19.525  0.00  0.00    +0.137 C 
ATOM     68  CG2 THR A   5       4.357  54.747  18.290  0.00  0.00    +0.034 C 
BRANCH  67  69
ATOM     69  OG1 THR A   5       4.246  54.002  20.549  0.00  0.00    -0.382 OA
ATOM     70  HG1 THR A   5       4.738  53.733  21.364  0.00  0.00    +0.210 HD
ENDBRANCH  67  69
ENDBRANCH  37  67
ENDBRANCH   2  37
TORSDOF 28
REMARK  Name = ../refined-set-2016/3drf/3drf_pocket.pdb
REMARK  320 active torsions:
REMARK  status: ('A' for Active; 'I' for Inactive)
REMARK    1  A    between atoms: _1  and  _3
REMARK    2  A    between atoms: _3  and  _4
REMARK    3  A    between atoms: _3  and  _6
REMARK    4  A    between atoms: _6  and  _7
REMARK    5  A    between atoms: _12  and  _13
REMARK    6  A    between atoms: _15  and  _17
REMARK    7  A    between atoms: _17  and  _18
REMARK    8  A    between atoms: _17  and  _20
REMARK    9  A    between atoms: _20  and  _21
REMARK   10  A    between atoms: _21  and  _22
REMARK   11  A    between atoms: _27  and  _29
REMARK   12  A    between atoms: _29  and  _30
REMARK   13  A    between atoms: _29  and  _32
REMARK   14  A    between atoms: _32  and  _33
REMARK   15  A    between atoms: _35  and  _37
REMARK   16  A    between atoms: _37  and  _38
REMARK   17  A    between atoms: _37  and  _40
REMARK   18  A    between atoms: _40  and  _41
REMARK   19  A    between atoms: _44  and  _46
REMARK   20  A    between atoms: _46  and  _47
REMARK   21  A    between atoms: _46  and  _49
REMARK   22  A    between atoms: _49  and  _50
REMARK   23  A    between atoms: _52  and  _54
REMARK   24  A    between atoms: _54  and  _55
REMARK   25  A    between atoms: _54  and  _57
REMARK   26  A    between atoms: _57  and  _58
REMARK   27  A    between atoms: _60  and  _62
REMARK   28  A    between atoms: _62  and  _63
REMARK   29  A    between atoms: _65  and  _67
REMARK   30  A    between atoms: _67  and  _68
REMARK   31  A    between atoms: _67  and  _70
REMARK   32  A    between atoms: _70  and  _71
REMARK   33  A    between atoms: _73  and  _75
REMARK   34  A    between atoms: _75  and  _76
REMARK   35  A    between atoms: _75  and  _78
REMARK   36  A    between atoms: _78  and  _79
REMARK   37  A    between atoms: _84  and  _86
REMARK   38  A    between atoms: _86  and  _87
REMARK   39  A    between atoms: _86  and  _89
REMARK   40  A    between atoms: _89  and  _90
REMARK   41  A    between atoms: _93  and  _95
REMARK   42  A    between atoms: _95  and  _96
REMARK   43  A    between atoms: _99  and  _101
REMARK   44  A    between atoms: _101  and  _102
REMARK   45  A    between atoms: _101  and  _104
REMARK   46  A    between atoms: _104  and  _105
REMARK   47  A    between atoms: _108  and  _110
REMARK   48  A    between atoms: _110  and  _111
REMARK   49  A    between atoms: _110  and  _113
REMARK   50  A    between atoms: _113  and  _114
REMARK   51  A    between atoms: _120  and  _122
REMARK   52  A    between atoms: _122  and  _123
REMARK   53  A    between atoms: _126  and  _128
REMARK   54  A    between atoms: _128  and  _129
REMARK   55  A    between atoms: _128  and  _131
REMARK   56  A    between atoms: _131  and  _132
REMARK   57  A    between atoms: _135  and  _137
REMARK   58  A    between atoms: _137  and  _138
REMARK   59  A    between atoms: _140  and  _142
REMARK   60  A    between atoms: _142  and  _143
REMARK   61  A    between atoms: _142  and  _145
REMARK   62  A    between atoms: _145  and  _146
REMARK   63  A    between atoms: _146  and  _147
REMARK   64  A    between atoms: _152  and  _154
REMARK   65  A    between atoms: _154  and  _155
REMARK   66  A    between atoms: _157  and  _159
REMARK   67  A    between atoms: _159  and  _160
REMARK   68  A    between atoms: _159  and  _162
REMARK   69  A    between atoms: _162  and  _163
REMARK   70  A    between atoms: _166  and  _168
REMARK   71  A    between atoms: _168  and  _169
REMARK   72  A    between atoms: _168  and  _171
REMARK   73  A    between atoms: _171  and  _172
REMARK   74  A    between atoms: _178  and  _180
REMARK   75  A    between atoms: _180  and  _181
REMARK   76  A    between atoms: _180  and  _183
REMARK   77  A    between atoms: _183  and  _184
REMARK   78  A    between atoms: _187  and  _189
REMARK   79  A    between atoms: _189  and  _190
REMARK   80  A    between atoms: _189  and  _192
REMARK   81  A    between atoms: _192  and  _193
REMARK   82  A    between atoms: _199  and  _201
REMARK   83  A    between atoms: _201  and  _202
REMARK   84  A    between atoms: _201  and  _204
REMARK   85  A    between atoms: _204  and  _205
REMARK   86  A    between atoms: _211  and  _213
REMARK   87  A    between atoms: _213  and  _214
REMARK   88  A    between atoms: _213  and  _216
REMARK   89  A    between atoms: _216  and  _217
REMARK   90  A    between atoms: _220  and  _222
REMARK   91  A    between atoms: _222  and  _223
REMARK   92  A    between atoms: _222  and  _225
REMARK   93  A    between atoms: _225  and  _226
REMARK   94  A    between atoms: _229  and  _231
REMARK   95  A    between atoms: _231  and  _232
REMARK   96  A    between atoms: _231  and  _234
REMARK   97  A    between atoms: _234  and  _235
REMARK   98  A    between atoms: _235  and  _236
REMARK   99  A    between atoms: _236  and  _237
REMARK  100  A    between atoms: _246  and  _248
REMARK  101  A    between atoms: _248  and  _249
REMARK  102  A    between atoms: _248  and  _251
REMARK  103  A    between atoms: _251  and  _252
REMARK  104  A    between atoms: _255  and  _257
REMARK  105  A    between atoms: _257  and  _258
REMARK  106  A    between atoms: _257  and  _260
REMARK  107  A    between atoms: _260  and  _261
REMARK  108  A    between atoms: _263  and  _265
REMARK  109  A    between atoms: _265  and  _266
REMARK  110  A    between atoms: _265  and  _268
REMARK  111  A    between atoms: _268  and  _269
REMARK  112  A    between atoms: _269  and  _270
REMARK  113  A    between atoms: _275  and  _277
REMARK  114  A    between atoms: _277  and  _278
REMARK  115  A    between atoms: _277  and  _280
REMARK  116  A    between atoms: _280  and  _281
REMARK  117  A    between atoms: _283  and  _285
REMARK  118  A    between atoms: _285  and  _286
REMARK  119  A    between atoms: _288  and  _290
REMARK  120  A    between atoms: _290  and  _291
REMARK  121  A    between atoms: _290  and  _293
REMARK  122  A    between atoms: _293  and  _294
REMARK  123  A    between atoms: _299  and  _301
REMARK  124  A    between atoms: _301  and  _302
REMARK  125  A    between atoms: _304  and  _306
REMARK  126  A    between atoms: _306  and  _307
REMARK  127  A    between atoms: _306  and  _309
REMARK  128  A    between atoms: _309  and  _310
REMARK  129  A    between atoms: _315  and  _316
REMARK  130  A    between atoms: _318  and  _320
REMARK  131  A    between atoms: _320  and  _321
REMARK  132  A    between atoms: _320  and  _323
REMARK  133  A    between atoms: _323  and  _324
REMARK  134  A    between atoms: _330  and  _332
REMARK  135  A    between atoms: _332  and  _333
REMARK  136  A    between atoms: _332  and  _335
REMARK  137  A    between atoms: _335  and  _336
REMARK  138  A    between atoms: _339  and  _341
REMARK  139  A    between atoms: _341  and  _342
REMARK  140  A    between atoms: _341  and  _344
REMARK  141  A    between atoms: _344  and  _345
REMARK  142  A    between atoms: _345  and  _346
REMARK  143  A    between atoms: _349  and  _351
REMARK  144  A    between atoms: _351  and  _352
REMARK  145  A    between atoms: _351  and  _354
REMARK  146  A    between atoms: _354  and  _355
REMARK  147  A    between atoms: _358  and  _360
REMARK  148  A    between atoms: _360  and  _361
REMARK  149  A    between atoms: _360  and  _363
REMARK  150  A    between atoms: _363  and  _364
REMARK  151  A    between atoms: _367  and  _369
REMARK  152  A    between atoms: _369  and  _370
REMARK  153  A    between atoms: _372  and  _374
REMARK  154  A    between atoms: _374  and  _375
REMARK  155  A    between atoms: _374  and  _377
REMARK  156  A    between atoms: _380  and  _382
REMARK  157  A    between atoms: _382  and  _383
REMARK  158  A    between atoms: _382  and  _385
REMARK  159  A    between atoms: _385  and  _386
REMARK  160  A    between atoms: _388  and  _390
REMARK  161  A    between atoms: _390  and  _391
REMARK  162  A    between atoms: _390  and  _393
REMARK  163  A    between atoms: _393  and  _394
REMARK  164  A    between atoms: _394  and  _395
REMARK  165  A    between atoms: _397  and  _399
REMARK  166  A    between atoms: _399  and  _400
REMARK  167  A    between atoms: _399  and  _402
REMARK  168  A    between atoms: _402  and  _403
REMARK  169  A    between atoms: _408  and  _409
REMARK  170  A    between atoms: _411  and  _413
REMARK  171  A    between atoms: _413  and  _414
REMARK  172  A    between atoms: _413  and  _416
REMARK  173  A    between atoms: _416  and  _417
REMARK  174  A    between atoms: _420  and  _422
REMARK  175  A    between atoms: _422  and  _423
REMARK  176  A    between atoms: _422  and  _425
REMARK  177  A    between atoms: _425  and  _426
REMARK  178  A    between atoms: _428  and  _430
REMARK  179  A    between atoms: _430  and  _431
REMARK  180  A    between atoms: _430  and  _433
REMARK  181  A    between atoms: _433  and  _434
REMARK  182  A    between atoms: _437  and  _439
REMARK  183  A    between atoms: _439  and  _440
REMARK  184  A    between atoms: _439  and  _442
REMARK  185  A    between atoms: _442  and  _443
REMARK  186  A    between atoms: _448  and  _449
REMARK  187  A    between atoms: _451  and  _453
REMARK  188  A    between atoms: _453  and  _454
REMARK  189  A    between atoms: _453  and  _456
REMARK  190  A    between atoms: _456  and  _457
REMARK  191  A    between atoms: _459  and  _461
REMARK  192  A    between atoms: _461  and  _462
REMARK  193  A    between atoms: _461  and  _464
REMARK  194  A    between atoms: _464  and  _465
REMARK  195  A    between atoms: _471  and  _473
REMARK  196  A    between atoms: _473  and  _474
REMARK  197  A    between atoms: _473  and  _476
REMARK  198  A    between atoms: _476  and  _477
REMARK  199  A    between atoms: _477  and  _478
REMARK  200  A    between atoms: _478  and  _479
REMARK  201  A    between atoms: _488  and  _490
REMARK  202  A    between atoms: _490  and  _491
REMARK  203  A    between atoms: _490  and  _493
REMARK  204  A    between atoms: _496  and  _498
REMARK  205  A    between atoms: _498  and  _499
REMARK  206  A    between atoms: _501  and  _503
REMARK  207  A    between atoms: _503  and  _504
REMARK  208  A    between atoms: _503  and  _506
REMARK  209  A    between atoms: _506  and  _507
REMARK  210  A    between atoms: _510  and  _512
REMARK  211  A    between atoms: _512  and  _513
REMARK  212  A    between atoms: _512  and  _515
REMARK  213  A    between atoms: _515  and  _516
REMARK  214  A    between atoms: _516  and  _517
REMARK  215  A    between atoms: _519  and  _521
REMARK  216  A    between atoms: _521  and  _522
REMARK  217  A    between atoms: _521  and  _524
REMARK  218  A    between atoms: _524  and  _525
REMARK  219  A    between atoms: _531  and  _533
REMARK  220  A    between atoms: _533  and  _534
REMARK  221  A    between atoms: _533  and  _536
REMARK  222  A    between atoms: _536  and  _537
REMARK  223  A    between atoms: _542  and  _544
REMARK  224  A    between atoms: _544  and  _545
REMARK  225  A    between atoms: _544  and  _547
REMARK  226  A    between atoms: _547  and  _548
REMARK  227  A    between atoms: _558  and  _560
REMARK  228  A    between atoms: _560  and  _561
REMARK  229  A    between atoms: _560  and  _563
REMARK  230  A    between atoms: _566  and  _568
REMARK  231  A    between atoms: _568  and  _569
REMARK  232  A    between atoms: _568  and  _571
REMARK  233  A    between atoms: _571  and  _572
REMARK  234  A    between atoms: _575  and  _577
REMARK  235  A    between atoms: _577  and  _578
REMARK  236  A    between atoms: _577  and  _580
REMARK  237  A    between atoms: _580  and  _581
REMARK  238  A    between atoms: _581  and  _582
REMARK  239  A    between atoms: _584  and  _586
REMARK  240  A    between atoms: _586  and  _587
REMARK  241  A    between atoms: _586  and  _589
REMARK  242  A    between atoms: _589  and  _590
REMARK  243  A    between atoms: _593  and  _595
REMARK  244  A    between atoms: _595  and  _596
REMARK  245  A    between atoms: _595  and  _598
REMARK  246  A    between atoms: _598  and  _599
REMARK  247  A    between atoms: _602  and  _604
REMARK  248  A    between atoms: _604  and  _605
REMARK  249  A    between atoms: _607  and  _609
REMARK  250  A    between atoms: _609  and  _610
REMARK  251  A    between atoms: _609  and  _612
REMARK  252  A    between atoms: _612  and  _613
REMARK  253  A    between atoms: _615  and  _617
REMARK  254  A    between atoms: _617  and  _618
REMARK  255  A    between atoms: _617  and  _620
REMARK  256  A    between atoms: _620  and  _621
REMARK  257  A    between atoms: _631  and  _633
REMARK  258  A    between atoms: _633  and  _634
REMARK  259  A    between atoms: _633  and  _636
REMARK  260  A    between atoms: _636  and  _637
REMARK  261  A    between atoms: _639  and  _641
REMARK  262  A    between atoms: _641  and  _642
REMARK  263  A    between atoms: _641  and  _644
REMARK  264  A    between atoms: _644  and  _645
REMARK  265  A    between atoms: _648  and  _650
REMARK  266  A    between atoms: _650  and  _651
REMARK  267  A    between atoms: _654  and  _656
REMARK  268  A    between atoms: _656  and  _657
REMARK  269  A    between atoms: _656  and  _659
REMARK  270  A    between atoms: _659  and  _660
REMARK  271  A    between atoms: _662  and  _664
REMARK  272  A    between atoms: _664  and  _665
REMARK  273  A    between atoms: _664  and  _667
REMARK  274  A    between atoms: _667  and  _668
REMARK  275  A    between atoms: _668  and  _669
REMARK  276  A    between atoms: _673  and  _674
REMARK  277  A    between atoms: _679  and  _681
REMARK  278  A    between atoms: _681  and  _682
REMARK  279  A    between atoms: _681  and  _684
REMARK  280  A    between atoms: _684  and  _685
REMARK  281  A    between atoms: _687  and  _689
REMARK  282  A    between atoms: _689  and  _690
REMARK  283  A    between atoms: _689  and  _692
REMARK  284  A    between atoms: _692  and  _693
REMARK  285  A    between atoms: _693  and  _694
REMARK  286  A    between atoms: _699  and  _701
REMARK  287  A    between atoms: _701  and  _702
REMARK  288  A    between atoms: _701  and  _704
REMARK  289  A    between atoms: _704  and  _705
REMARK  290  A    between atoms: _705  and  _706
REMARK  291  A    between atoms: _711  and  _713
REMARK  292  A    between atoms: _713  and  _714
REMARK  293  A    between atoms: _713  and  _716
REMARK  294  A    between atoms: _716  and  _717
REMARK  295  A    between atoms: _720  and  _722
REMARK  296  A    between atoms: _722  and  _723
REMARK  297  A    between atoms: _722  and  _725
REMARK  298  A    between atoms: _725  and  _726
REMARK  299  A    between atoms: _729  and  _731
REMARK  300  A    between atoms: _731  and  _732
REMARK  301  A    between atoms: _731  and  _734
REMARK  302  A    between atoms: _734  and  _735
REMARK  303  A    between atoms: _741  and  _743
REMARK  304  A    between atoms: _743  and  _744
REMARK  305  A    between atoms: _743  and  _746
REMARK  306  A    between atoms: _746  and  _747
REMARK  307  A    between atoms: _752  and  _753
REMARK  308  A    between atoms: _755  and  _757
REMARK  309  A    between atoms: _757  and  _758
REMARK  310  A    between atoms: _757  and  _760
REMARK  311  A    between atoms: _760  and  _761
REMARK  312  A    between atoms: _767  and  _769
REMARK  313  A    between atoms: _769  and  _770
REMARK  314  A    between atoms: _769  and  _772
REMARK  315  A    between atoms: _772  and  _773
REMARK  316  A    between atoms: _778  and  _780
REMARK  317  A    between atoms: _780  and  _781
REMARK  318  A    between atoms: _780  and  _783
REMARK  319  A    between atoms: _783  and  _784
REMARK  320  A    between atoms: _784  and  _785
REMARK                            x       y       z     vdW  Elec       q    Type
REMARK                         _______ _______ _______ _____ _____    ______ ____
ROOT
ATOM      1  CA  GLN A   2      17.245  52.079  14.370  0.00  0.00    +0.137 C 
ENDROOT
BRANCH   1   4
ATOM      2  C   GLY A   1      16.004  49.915  14.461  0.00  0.00    +0.240 C 
ATOM      3  O   GLY A   1      16.559  49.536  15.440  0.00  0.00    -0.274 OA
ATOM      4  N   GLN A   2      16.221  51.082  13.897  0.00  0.00    -0.298 N 
ATOM      5  H   GLN A   2      15.646  51.334  13.068  0.00  0.00    +0.150 HD
BRANCH   2   6
ATOM      6  CA  GLY A   1      15.033  49.009  13.695  0.00  0.00    +0.169 C 
BRANCH   6   7
ATOM      7  N   GLY A   1      15.273  48.967  12.239  0.00  0.00    -0.236 NA
ATOM      8  H   GLY A   1      14.544  49.327  11.590  0.00  0.00    +0.142 HD
ENDBRANCH   6   7
ENDBRANCH   2   6
ENDBRANCH   1   4
BRANCH   1   9
ATOM      9  C   GLN A   2      18.668  51.488  14.263  0.00  0.00    +0.227 C 
ATOM     10  O   GLN A   2      19.503  51.681  15.073  0.00  0.00    -0.286 OA
ENDBRANCH   1   9
BRANCH   1  11
ATOM     11  CB  GLN A   2      16.873  52.612  15.773  0.00  0.00    +0.037 C 
BRANCH  11  12
ATOM     12  CG  GLN A   2      15.518  53.295  15.762  0.00  0.00    +0.087 C 
BRANCH  12  13
ATOM     13  CD  GLN A   2      14.933  53.510  17.159  0.00  0.00    +0.219 C 
ATOM     14  NE2 GLN A   2      15.032  52.507  17.980  0.00  0.00    -0.329 N 
ATOM     15 HE21 GLN A   2      14.688  52.599  18.957  0.00  0.00    +0.145 HD
ATOM     16 HE22 GLN A   2      15.455  51.613  17.660  0.00  0.00    +0.145 HD
ATOM     17  OE1 GLN A   2      14.456  54.563  17.470  0.00  0.00    -0.275 OA
ENDBRANCH  12  13
ENDBRANCH  11  12
ENDBRANCH   1  11
TORSDOF 7
REMARK  Name = ../refined-set-2016/3drf/3drf_pocket.pdb
REMARK  320 active torsions:
REMARK  status: ('A' for Active; 'I' for Inactive)
REMARK    1  A    between atoms: _1  and  _3
REMARK    2  A    between atoms: _3  and  _4
REMARK    3  A    between atoms: _3  and  _6
REMARK    4  A    between atoms: _6  and  _7
REMARK    5  A    between atoms: _12  and  _13
REMARK    6  A    between atoms: _15  and  _17
REMARK    7  A    between atoms: _17  and  _18
REMARK    8  A    between atoms: _17  and  _20
REMARK    9  A    between atoms: _20  and  _21
REMARK   10  A    between atoms: _21  and  _22
REMARK   11  A    between atoms: _27  and  _29
REMARK   12  A    between atoms: _29  and  _30
REMARK   13  A    between atoms: _29  and  _32
REMARK   14  A    between atoms: _32  and  _33
REMARK   15  A    between atoms: _35  and  _37
REMARK   16  A    between atoms: _37  and  _38
REMARK   17  A    between atoms: _37  and  _40
REMARK   18  A    between atoms: _40  and  _41
REMARK   19  A    between atoms: _44  and  _46
REMARK   20  A    between atoms: _46  and  _47
REMARK   21  A    between atoms: _46  and  _49
REMARK   22  A    between atoms: _49  and  _50
REMARK   23  A    between atoms: _52  and  _54
REMARK   24  A    between atoms: _54  and  _55
REMARK   25  A    between atoms: _54  and  _57
REMARK   26  A    between atoms: _57  and  _58
REMARK   27  A    between atoms: _60  and  _62
REMARK   28  A    between atoms: _62  and  _63
REMARK   29  A    between atoms: _65  and  _67
REMARK   30  A    between atoms: _67  and  _68
REMARK   31  A    between atoms: _67  and  _70
REMARK   32  A    between atoms: _70  and  _71
REMARK   33  A    between atoms: _73  and  _75
REMARK   34  A    between atoms: _75  and  _76
REMARK   35  A    between atoms: _75  and  _78
REMARK   36  A    between atoms: _78  and  _79
REMARK   37  A    between atoms: _84  and  _86
REMARK   38  A    between atoms: _86  and  _87
REMARK   39  A    between atoms: _86  and  _89
REMARK   40  A    between atoms: _89  and  _90
REMARK   41  A    between atoms: _93  and  _95
REMARK   42  A    between atoms: _95  and  _96
REMARK   43  A    between atoms: _99  and  _101
REMARK   44  A    between atoms: _101  and  _102
REMARK   45  A    between atoms: _101  and  _104
REMARK   46  A    between atoms: _104  and  _105
REMARK   47  A    between atoms: _108  and  _110
REMARK   48  A    between atoms: _110  and  _111
REMARK   49  A    between atoms: _110  and  _113
REMARK   50  A    between atoms: _113  and  _114
REMARK   51  A    between atoms: _120  and  _122
REMARK   52  A    between atoms: _122  and  _123
REMARK   53  A    between atoms: _126  and  _128
REMARK   54  A    between atoms: _128  and  _129
REMARK   55  A    between atoms: _128  and  _131
REMARK   56  A    between atoms: _131  and  _132
REMARK   57  A    between atoms: _135  and  _137
REMARK   58  A    between atoms: _137  and  _138
REMARK   59  A    between atoms: _140  and  _142
REMARK   60  A    between atoms: _142  and  _143
REMARK   61  A    between atoms: _142  and  _145
REMARK   62  A    between atoms: _145  and  _146
REMARK   63  A    between atoms: _146  and  _147
REMARK   64  A    between atoms: _152  and  _154
REMARK   65  A    between atoms: _154  and  _155
REMARK   66  A    between atoms: _157  and  _159
REMARK   67  A    between atoms: _159  and  _160
REMARK   68  A    between atoms: _159  and  _162
REMARK   69  A    between atoms: _162  and  _163
REMARK   70  A    between atoms: _166  and  _168
REMARK   71  A    between atoms: _168  and  _169
REMARK   72  A    between atoms: _168  and  _171
REMARK   73  A    between atoms: _171  and  _172
REMARK   74  A    between atoms: _178  and  _180
REMARK   75  A    between atoms: _180  and  _181
REMARK   76  A    between atoms: _180  and  _183
REMARK   77  A    between atoms: _183  and  _184
REMARK   78  A    between atoms: _187  and  _189
REMARK   79  A    between atoms: _189  and  _190
REMARK   80  A    between atoms: _189  and  _192
REMARK   81  A    between atoms: _192  and  _193
REMARK   82  A    between atoms: _199  and  _201
REMARK   83  A    between atoms: _201  and  _202
REMARK   84  A    between atoms: _201  and  _204
REMARK   85  A    between atoms: _204  and  _205
REMARK   86  A    between atoms: _211  and  _213
REMARK   87  A    between atoms: _213  and  _214
REMARK   88  A    between atoms: _213  and  _216
REMARK   89  A    between atoms: _216  and  _217
REMARK   90  A    between atoms: _220  and  _222
REMARK   91  A    between atoms: _222  and  _223
REMARK   92  A    between atoms: _222  and  _225
REMARK   93  A    between atoms: _225  and  _226
REMARK   94  A    between atoms: _229  and  _231
REMARK   95  A    between atoms: _231  and  _232
REMARK   96  A    between atoms: _231  and  _234
REMARK   97  A    between atoms: _234  and  _235
REMARK   98  A    between atoms: _235  and  _236
REMARK   99  A    between atoms: _236  and  _237
REMARK  100  A    between atoms: _246  and  _248
REMARK  101  A    between atoms: _248  and  _249
REMARK  102  A    between atoms: _248  and  _251
REMARK  103  A    between atoms: _251  and  _252
REMARK  104  A    between atoms: _255  and  _257
REMARK  105  A    between atoms: _257  and  _258
REMARK  106  A    between atoms: _257  and  _260
REMARK  107  A    between atoms: _260  and  _261
REMARK  108  A    between atoms: _263  and  _265
REMARK  109  A    between atoms: _265  and  _266
REMARK  110  A    between atoms: _265  and  _268
REMARK  111  A    between atoms: _268  and  _269
REMARK  112  A    between atoms: _269  and  _270
REMARK  113  A    between atoms: _275  and  _277
REMARK  114  A    between atoms: _277  and  _278
REMARK  115  A    between atoms: _277  and  _280
REMARK  116  A    between atoms: _280  and  _281
REMARK  117  A    between atoms: _283  and  _285
REMARK  118  A    between atoms: _285  and  _286
REMARK  119  A    between atoms: _288  and  _290
REMARK  120  A    between atoms: _290  and  _291
REMARK  121  A    between atoms: _290  and  _293
REMARK  122  A    between atoms: _293  and  _294
REMARK  123  A    between atoms: _299  and  _301
REMARK  124  A    between atoms: _301  and  _302
REMARK  125  A    between atoms: _304  and  _306
REMARK  126  A    between atoms: _306  and  _307
REMARK  127  A    between atoms: _306  and  _309
REMARK  128  A    between atoms: _309  and  _310
REMARK  129  A    between atoms: _315  and  _316
REMARK  130  A    between atoms: _318  and  _320
REMARK  131  A    between atoms: _320  and  _321
REMARK  132  A    between atoms: _320  and  _323
REMARK  133  A    between atoms: _323  and  _324
REMARK  134  A    between atoms: _330  and  _332
REMARK  135  A    between atoms: _332  and  _333
REMARK  136  A    between atoms: _332  and  _335
REMARK  137  A    between atoms: _335  and  _336
REMARK  138  A    between atoms: _339  and  _341
REMARK  139  A    between atoms: _341  and  _342
REMARK  140  A    between atoms: _341  and  _344
REMARK  141  A    between atoms: _344  and  _345
REMARK  142  A    between atoms: _345  and  _346
REMARK  143  A    between atoms: _349  and  _351
REMARK  144  A    between atoms: _351  and  _352
REMARK  145  A    between atoms: _351  and  _354
REMARK  146  A    between atoms: _354  and  _355
REMARK  147  A    between atoms: _358  and  _360
REMARK  148  A    between atoms: _360  and  _361
REMARK  149  A    between atoms: _360  and  _363
REMARK  150  A    between atoms: _363  and  _364
REMARK  151  A    between atoms: _367  and  _369
REMARK  152  A    between atoms: _369  and  _370
REMARK  153  A    between atoms: _372  and  _374
REMARK  154  A    between atoms: _374  and  _375
REMARK  155  A    between atoms: _374  and  _377
REMARK  156  A    between atoms: _380  and  _382
REMARK  157  A    between atoms: _382  and  _383
REMARK  158  A    between atoms: _382  and  _385
REMARK  159  A    between atoms: _385  and  _386
REMARK  160  A    between atoms: _388  and  _390
REMARK  161  A    between atoms: _390  and  _391
REMARK  162  A    between atoms: _390  and  _393
REMARK  163  A    between atoms: _393  and  _394
REMARK  164  A    between atoms: _394  and  _395
REMARK  165  A    between atoms: _397  and  _399
REMARK  166  A    between atoms: _399  and  _400
REMARK  167  A    between atoms: _399  and  _402
REMARK  168  A    between atoms: _402  and  _403
REMARK  169  A    between atoms: _408  and  _409
REMARK  170  A    between atoms: _411  and  _413
REMARK  171  A    between atoms: _413  and  _414
REMARK  172  A    between atoms: _413  and  _416
REMARK  173  A    between atoms: _416  and  _417
REMARK  174  A    between atoms: _420  and  _422
REMARK  175  A    between atoms: _422  and  _423
REMARK  176  A    between atoms: _422  and  _425
REMARK  177  A    between atoms: _425  and  _426
REMARK  178  A    between atoms: _428  and  _430
REMARK  179  A    between atoms: _430  and  _431
REMARK  180  A    between atoms: _430  and  _433
REMARK  181  A    between atoms: _433  and  _434
REMARK  182  A    between atoms: _437  and  _439
REMARK  183  A    between atoms: _439  and  _440
REMARK  184  A    between atoms: _439  and  _442
REMARK  185  A    between atoms: _442  and  _443
REMARK  186  A    between atoms: _448  and  _449
REMARK  187  A    between atoms: _451  and  _453
REMARK  188  A    between atoms: _453  and  _454
REMARK  189  A    between atoms: _453  and  _456
REMARK  190  A    between atoms: _456  and  _457
REMARK  191  A    between atoms: _459  and  _461
REMARK  192  A    between atoms: _461  and  _462
REMARK  193  A    between atoms: _461  and  _464
REMARK  194  A    between atoms: _464  and  _465
REMARK  195  A    between atoms: _471  and  _473
REMARK  196  A    between atoms: _473  and  _474
REMARK  197  A    between atoms: _473  and  _476
REMARK  198  A    between atoms: _476  and  _477
REMARK  199  A    between atoms: _477  and  _478
REMARK  200  A    between atoms: _478  and  _479
REMARK  201  A    between atoms: _488  and  _490
REMARK  202  A    between atoms: _490  and  _491
REMARK  203  A    between atoms: _490  and  _493
REMARK  204  A    between atoms: _496  and  _498
REMARK  205  A    between atoms: _498  and  _499
REMARK  206  A    between atoms: _501  and  _503
REMARK  207  A    between atoms: _503  and  _504
REMARK  208  A    between atoms: _503  and  _506
REMARK  209  A    between atoms: _506  and  _507
REMARK  210  A    between atoms: _510  and  _512
REMARK  211  A    between atoms: _512  and  _513
REMARK  212  A    between atoms: _512  and  _515
REMARK  213  A    between atoms: _515  and  _516
REMARK  214  A    between atoms: _516  and  _517
REMARK  215  A    between atoms: _519  and  _521
REMARK  216  A    between atoms: _521  and  _522
REMARK  217  A    between atoms: _521  and  _524
REMARK  218  A    between atoms: _524  and  _525
REMARK  219  A    between atoms: _531  and  _533
REMARK  220  A    between atoms: _533  and  _534
REMARK  221  A    between atoms: _533  and  _536
REMARK  222  A    between atoms: _536  and  _537
REMARK  223  A    between atoms: _542  and  _544
REMARK  224  A    between atoms: _544  and  _545
REMARK  225  A    between atoms: _544  and  _547
REMARK  226  A    between atoms: _547  and  _548
REMARK  227  A    between atoms: _558  and  _560
REMARK  228  A    between atoms: _560  and  _561
REMARK  229  A    between atoms: _560  and  _563
REMARK  230  A    between atoms: _566  and  _568
REMARK  231  A    between atoms: _568  and  _569
REMARK  232  A    between atoms: _568  and  _571
REMARK  233  A    between atoms: _571  and  _572
REMARK  234  A    between atoms: _575  and  _577
REMARK  235  A    between atoms: _577  and  _578
REMARK  236  A    between atoms: _577  and  _580
REMARK  237  A    between atoms: _580  and  _581
REMARK  238  A    between atoms: _581  and  _582
REMARK  239  A    between atoms: _584  and  _586
REMARK  240  A    between atoms: _586  and  _587
REMARK  241  A    between atoms: _586  and  _589
REMARK  242  A    between atoms: _589  and  _590
REMARK  243  A    between atoms: _593  and  _595
REMARK  244  A    between atoms: _595  and  _596
REMARK  245  A    between atoms: _595  and  _598
REMARK  246  A    between atoms: _598  and  _599
REMARK  247  A    between atoms: _602  and  _604
REMARK  248  A    between atoms: _604  and  _605
REMARK  249  A    between atoms: _607  and  _609
REMARK  250  A    between atoms: _609  and  _610
REMARK  251  A    between atoms: _609  and  _612
REMARK  252  A    between atoms: _612  and  _613
REMARK  253  A    between atoms: _615  and  _617
REMARK  254  A    between atoms: _617  and  _618
REMARK  255  A    between atoms: _617  and  _620
REMARK  256  A    between atoms: _620  and  _621
REMARK  257  A    between atoms: _631  and  _633
REMARK  258  A    between atoms: _633  and  _634
REMARK  259  A    between atoms: _633  and  _636
REMARK  260  A    between atoms: _636  and  _637
REMARK  261  A    between atoms: _639  and  _641
REMARK  262  A    between atoms: _641  and  _642
REMARK  263  A    between atoms: _641  and  _644
REMARK  264  A    between atoms: _644  and  _645
REMARK  265  A    between atoms: _648  and  _650
REMARK  266  A    between atoms: _650  and  _651
REMARK  267  A    between atoms: _654  and  _656
REMARK  268  A    between atoms: _656  and  _657
REMARK  269  A    between atoms: _656  and  _659
REMARK  270  A    between atoms: _659  and  _660
REMARK  271  A    between atoms: _662  and  _664
REMARK  272  A    between atoms: _664  and  _665
REMARK  273  A    between atoms: _664  and  _667
REMARK  274  A    between atoms: _667  and  _668
REMARK  275  A    between atoms: _668  and  _669
REMARK  276  A    between atoms: _673  and  _674
REMARK  277  A    between atoms: _679  and  _681
REMARK  278  A    between atoms: _681  and  _682
REMARK  279  A    between atoms: _681  and  _684
REMARK  280  A    between atoms: _684  and  _685
REMARK  281  A    between atoms: _687  and  _689
REMARK  282  A    between atoms: _689  and  _690
REMARK  283  A    between atoms: _689  and  _692
REMARK  284  A    between atoms: _692  and  _693
REMARK  285  A    between atoms: _693  and  _694
REMARK  286  A    between atoms: _699  and  _701
REMARK  287  A    between atoms: _701  and  _702
REMARK  288  A    between atoms: _701  and  _704
REMARK  289  A    between atoms: _704  and  _705
REMARK  290  A    between atoms: _705  and  _706
REMARK  291  A    between atoms: _711  and  _713
REMARK  292  A    between atoms: _713  and  _714
REMARK  293  A    between atoms: _713  and  _716
REMARK  294  A    between atoms: _716  and  _717
REMARK  295  A    between atoms: _720  and  _722
REMARK  296  A    between atoms: _722  and  _723
REMARK  297  A    between atoms: _722  and  _725
REMARK  298  A    between atoms: _725  and  _726
REMARK  299  A    between atoms: _729  and  _731
REMARK  300  A    between atoms: _731  and  _732
REMARK  301  A    between atoms: _731  and  _734
REMARK  302  A    between atoms: _734  and  _735
REMARK  303  A    between atoms: _741  and  _743
REMARK  304  A    between atoms: _743  and  _744
REMARK  305  A    between atoms: _743  and  _746
REMARK  306  A    between atoms: _746  and  _747
REMARK  307  A    between atoms: _752  and  _753
REMARK  308  A    between atoms: _755  and  _757
REMARK  309  A    between atoms: _757  and  _758
REMARK  310  A    between atoms: _757  and  _760
REMARK  311  A    between atoms: _760  and  _761
REMARK  312  A    between atoms: _767  and  _769
REMARK  313  A    between atoms: _769  and  _770
REMARK  314  A    between atoms: _769  and  _772
REMARK  315  A    between atoms: _772  and  _773
REMARK  316  A    between atoms: _778  and  _780
REMARK  317  A    between atoms: _780  and  _781
REMARK  318  A    between atoms: _780  and  _783
REMARK  319  A    between atoms: _783  and  _784
REMARK  320  A    between atoms: _784  and  _785
REMARK                            x       y       z     vdW  Elec       q    Type
REMARK                         _______ _______ _______ _____ _____    ______ ____
ROOT
ATOM      1  C   LEU A   2      23.633  43.641  13.766  0.00  0.00    +0.241 C 
ATOM      2  N   PHE A   3      23.109  43.042  14.830  0.00  0.00    -0.298 N 
ATOM      3  H   PHE A   3      22.531  43.586  15.502  0.00  0.00    +0.150 HD
ATOM      4  O   LEU A   2      24.132  43.072  12.867  0.00  0.00    -0.273 OA
ENDROOT
BRANCH   1   5
ATOM      5  CA  LEU A   2      23.659  45.175  13.789  0.00  0.00    +0.149 C 
BRANCH   5   7
ATOM      6  C   GLY A   1      21.532  46.409  13.865  0.00  0.00    +0.240 C 
ATOM      7  N   LEU A   2      22.559  45.853  14.501  0.00  0.00    -0.297 N 
ATOM      8  H   LEU A   2      22.588  45.898  15.540  0.00  0.00    +0.150 HD
ATOM      9  O   GLY A   1      21.349  46.292  12.653  0.00  0.00    -0.274 OA
BRANCH   6  10
ATOM     10  CA  GLY A   1      20.582  47.235  14.715  0.00  0.00    +0.169 C 
BRANCH  10  11
ATOM     11  N   GLY A   1      20.086  48.402  14.004  0.00  0.00    -0.236 NA
ATOM     12  H   GLY A   1      19.066  48.483  13.816  0.00  0.00    +0.142 HD
ENDBRANCH  10  11
ENDBRANCH   6  10
ENDBRANCH   5   7
BRANCH   5  13
ATOM     13  CB  LEU A   2      25.011  45.596  14.417  0.00  0.00    +0.029 C 
BRANCH  13  14
ATOM     14  CG  LEU A   2      25.440  47.031  14.148  0.00  0.00    +0.002 C 
ATOM     15  CD2 LEU A   2      26.697  47.292  14.924  0.00  0.00    +0.000 C 
ATOM     16  CD1 LEU A   2      25.659  47.274  12.587  0.00  0.00    +0.000 C 
ENDBRANCH  13  14
ENDBRANCH   5  13
ENDBRANCH   1   5
BRANCH   2  17
ATOM     17  CA  PHE A   3      23.350  41.592  15.058  0.00  0.00    +0.141 C 
BRANCH  17  18
ATOM     18  C   PHE A   3      22.111  40.728  14.869  0.00  0.00    +0.227 C 
ATOM     19  O   PHE A   3      21.035  41.080  15.246  0.00  0.00    -0.286 OA
ENDBRANCH  17  18
BRANCH  17  20
ATOM     20  CB  PHE A   3      23.897  41.385  16.474  0.00  0.00    +0.054 C 
BRANCH  20  21
ATOM     21  CG  PHE A   3      25.115  42.231  16.791  0.00  0.00    -0.020 A 
ATOM     22  CD2 PHE A   3      25.075  43.163  17.814  0.00  0.00    -0.004 A 
ATOM     23  CE2 PHE A   3      26.215  43.977  18.086  0.00  0.00    -0.000 A 
ATOM     24  CZ  PHE A   3      27.392  43.829  17.321  0.00  0.00    -0.000 A 
ATOM     25  CE1 PHE A   3      27.420  42.863  16.317  0.00  0.00    -0.000 A 
ATOM     26  CD1 PHE A   3      26.277  42.068  16.064  0.00  0.00    -0.004 A 
ENDBRANCH  20  21
ENDBRANCH  17  20
ENDBRANCH   2  17
TORSDOF 10
REMARK  Name = ../refined-set-2016/3drf/3drf_pocket.pdb
REMARK  320 active torsions:
REMARK  status: ('A' for Active; 'I' for Inactive)
REMARK    1  A    between atoms: _1  and  _3
REMARK    2  A    between atoms: _3  and  _4
REMARK    3  A    between atoms: _3  and  _6
REMARK    4  A    between atoms: _6  and  _7
REMARK    5  A    between atoms: _12  and  _13
REMARK    6  A    between atoms: _15  and  _17
REMARK    7  A    between atoms: _17  and  _18
REMARK    8  A    between atoms: _17  and  _20
REMARK    9  A    between atoms: _20  and  _21
REMARK   10  A    between atoms: _21  and  _22
REMARK   11  A    between atoms: _27  and  _29
REMARK   12  A    between atoms: _29  and  _30
REMARK   13  A    between atoms: _29  and  _32
REMARK   14  A    between atoms: _32  and  _33
REMARK   15  A    between atoms: _35  and  _37
REMARK   16  A    between atoms: _37  and  _38
REMARK   17  A    between atoms: _37  and  _40
REMARK   18  A    between atoms: _40  and  _41
REMARK   19  A    between atoms: _44  and  _46
REMARK   20  A    between atoms: _46  and  _47
REMARK   21  A    between atoms: _46  and  _49
REMARK   22  A    between atoms: _49  and  _50
REMARK   23  A    between atoms: _52  and  _54
REMARK   24  A    between atoms: _54  and  _55
REMARK   25  A    between atoms: _54  and  _57
REMARK   26  A    between atoms: _57  and  _58
REMARK   27  A    between atoms: _60  and  _62
REMARK   28  A    between atoms: _62  and  _63
REMARK   29  A    between atoms: _65  and  _67
REMARK   30  A    between atoms: _67  and  _68
REMARK   31  A    between atoms: _67  and  _70
REMARK   32  A    between atoms: _70  and  _71
REMARK   33  A    between atoms: _73  and  _75
REMARK   34  A    between atoms: _75  and  _76
REMARK   35  A    between atoms: _75  and  _78
REMARK   36  A    between atoms: _78  and  _79
REMARK   37  A    between atoms: _84  and  _86
REMARK   38  A    between atoms: _86  and  _87
REMARK   39  A    between atoms: _86  and  _89
REMARK   40  A    between atoms: _89  and  _90
REMARK   41  A    between atoms: _93  and  _95
REMARK   42  A    between atoms: _95  and  _96
REMARK   43  A    between atoms: _99  and  _101
REMARK   44  A    between atoms: _101  and  _102
REMARK   45  A    between atoms: _101  and  _104
REMARK   46  A    between atoms: _104  and  _105
REMARK   47  A    between atoms: _108  and  _110
REMARK   48  A    between atoms: _110  and  _111
REMARK   49  A    between atoms: _110  and  _113
REMARK   50  A    between atoms: _113  and  _114
REMARK   51  A    between atoms: _120  and  _122
REMARK   52  A    between atoms: _122  and  _123
REMARK   53  A    between atoms: _126  and  _128
REMARK   54  A    between atoms: _128  and  _129
REMARK   55  A    between atoms: _128  and  _131
REMARK   56  A    between atoms: _131  and  _132
REMARK   57  A    between atoms: _135  and  _137
REMARK   58  A    between atoms: _137  and  _138
REMARK   59  A    between atoms: _140  and  _142
REMARK   60  A    between atoms: _142  and  _143
REMARK   61  A    between atoms: _142  and  _145
REMARK   62  A    between atoms: _145  and  _146
REMARK   63  A    between atoms: _146  and  _147
REMARK   64  A    between atoms: _152  and  _154
REMARK   65  A    between atoms: _154  and  _155
REMARK   66  A    between atoms: _157  and  _159
REMARK   67  A    between atoms: _159  and  _160
REMARK   68  A    between atoms: _159  and  _162
REMARK   69  A    between atoms: _162  and  _163
REMARK   70  A    between atoms: _166  and  _168
REMARK   71  A    between atoms: _168  and  _169
REMARK   72  A    between atoms: _168  and  _171
REMARK   73  A    between atoms: _171  and  _172
REMARK   74  A    between atoms: _178  and  _180
REMARK   75  A    between atoms: _180  and  _181
REMARK   76  A    between atoms: _180  and  _183
REMARK   77  A    between atoms: _183  and  _184
REMARK   78  A    between atoms: _187  and  _189
REMARK   79  A    between atoms: _189  and  _190
REMARK   80  A    between atoms: _189  and  _192
REMARK   81  A    between atoms: _192  and  _193
REMARK   82  A    between atoms: _199  and  _201
REMARK   83  A    between atoms: _201  and  _202
REMARK   84  A    between atoms: _201  and  _204
REMARK   85  A    between atoms: _204  and  _205
REMARK   86  A    between atoms: _211  and  _213
REMARK   87  A    between atoms: _213  and  _214
REMARK   88  A    between atoms: _213  and  _216
REMARK   89  A    between atoms: _216  and  _217
REMARK   90  A    between atoms: _220  and  _222
REMARK   91  A    between atoms: _222  and  _223
REMARK   92  A    between atoms: _222  and  _225
REMARK   93  A    between atoms: _225  and  _226
REMARK   94  A    between atoms: _229  and  _231
REMARK   95  A    between atoms: _231  and  _232
REMARK   96  A    between atoms: _231  and  _234
REMARK   97  A    between atoms: _234  and  _235
REMARK   98  A    between atoms: _235  and  _236
REMARK   99  A    between atoms: _236  and  _237
REMARK  100  A    between atoms: _246  and  _248
REMARK  101  A    between atoms: _248  and  _249
REMARK  102  A    between atoms: _248  and  _251
REMARK  103  A    between atoms: _251  and  _252
REMARK  104  A    between atoms: _255  and  _257
REMARK  105  A    between atoms: _257  and  _258
REMARK  106  A    between atoms: _257  and  _260
REMARK  107  A    between atoms: _260  and  _261
REMARK  108  A    between atoms: _263  and  _265
REMARK  109  A    between atoms: _265  and  _266
REMARK  110  A    between atoms: _265  and  _268
REMARK  111  A    between atoms: _268  and  _269
REMARK  112  A    between atoms: _269  and  _270
REMARK  113  A    between atoms: _275  and  _277
REMARK  114  A    between atoms: _277  and  _278
REMARK  115  A    between atoms: _277  and  _280
REMARK  116  A    between atoms: _280  and  _281
REMARK  117  A    between atoms: _283  and  _285
REMARK  118  A    between atoms: _285  and  _286
REMARK  119  A    between atoms: _288  and  _290
REMARK  120  A    between atoms: _290  and  _291
REMARK  121  A    between atoms: _290  and  _293
REMARK  122  A    between atoms: _293  and  _294
REMARK  123  A    between atoms: _299  and  _301
REMARK  124  A    between atoms: _301  and  _302
REMARK  125  A    between atoms: _304  and  _306
REMARK  126  A    between atoms: _306  and  _307
REMARK  127  A    between atoms: _306  and  _309
REMARK  128  A    between atoms: _309  and  _310
REMARK  129  A    between atoms: _315  and  _316
REMARK  130  A    between atoms: _318  and  _320
REMARK  131  A    between atoms: _320  and  _321
REMARK  132  A    between atoms: _320  and  _323
REMARK  133  A    between atoms: _323  and  _324
REMARK  134  A    between atoms: _330  and  _332
REMARK  135  A    between atoms: _332  and  _333
REMARK  136  A    between atoms: _332  and  _335
REMARK  137  A    between atoms: _335  and  _336
REMARK  138  A    between atoms: _339  and  _341
REMARK  139  A    between atoms: _341  and  _342
REMARK  140  A    between atoms: _341  and  _344
REMARK  141  A    between atoms: _344  and  _345
REMARK  142  A    between atoms: _345  and  _346
REMARK  143  A    between atoms: _349  and  _351
REMARK  144  A    between atoms: _351  and  _352
REMARK  145  A    between atoms: _351  and  _354
REMARK  146  A    between atoms: _354  and  _355
REMARK  147  A    between atoms: _358  and  _360
REMARK  148  A    between atoms: _360  and  _361
REMARK  149  A    between atoms: _360  and  _363
REMARK  150  A    between atoms: _363  and  _364
REMARK  151  A    between atoms: _367  and  _369
REMARK  152  A    between atoms: _369  and  _370
REMARK  153  A    between atoms: _372  and  _374
REMARK  154  A    between atoms: _374  and  _375
REMARK  155  A    between atoms: _374  and  _377
REMARK  156  A    between atoms: _380  and  _382
REMARK  157  A    between atoms: _382  and  _383
REMARK  158  A    between atoms: _382  and  _385
REMARK  159  A    between atoms: _385  and  _386
REMARK  160  A    between atoms: _388  and  _390
REMARK  161  A    between atoms: _390  and  _391
REMARK  162  A    between atoms: _390  and  _393
REMARK  163  A    between atoms: _393  and  _394
REMARK  164  A    between atoms: _394  and  _395
REMARK  165  A    between atoms: _397  and  _399
REMARK  166  A    between atoms: _399  and  _400
REMARK  167  A    between atoms: _399  and  _402
REMARK  168  A    between atoms: _402  and  _403
REMARK  169  A    between atoms: _408  and  _409
REMARK  170  A    between atoms: _411  and  _413
REMARK  171  A    between atoms: _413  and  _414
REMARK  172  A    between atoms: _413  and  _416
REMARK  173  A    between atoms: _416  and  _417
REMARK  174  A    between atoms: _420  and  _422
REMARK  175  A    between atoms: _422  and  _423
REMARK  176  A    between atoms: _422  and  _425
REMARK  177  A    between atoms: _425  and  _426
REMARK  178  A    between atoms: _428  and  _430
REMARK  179  A    between atoms: _430  and  _431
REMARK  180  A    between atoms: _430  and  _433
REMARK  181  A    between atoms: _433  and  _434
REMARK  182  A    between atoms: _437  and  _439
REMARK  183  A    between atoms: _439  and  _440
REMARK  184  A    between atoms: _439  and  _442
REMARK  185  A    between atoms: _442  and  _443
REMARK  186  A    between atoms: _448  and  _449
REMARK  187  A    between atoms: _451  and  _453
REMARK  188  A    between atoms: _453  and  _454
REMARK  189  A    between atoms: _453  and  _456
REMARK  190  A    between atoms: _456  and  _457
REMARK  191  A    between atoms: _459  and  _461
REMARK  192  A    between atoms: _461  and  _462
REMARK  193  A    between atoms: _461  and  _464
REMARK  194  A    between atoms: _464  and  _465
REMARK  195  A    between atoms: _471  and  _473
REMARK  196  A    between atoms: _473  and  _474
REMARK  197  A    between atoms: _473  and  _476
REMARK  198  A    between atoms: _476  and  _477
REMARK  199  A    between atoms: _477  and  _478
REMARK  200  A    between atoms: _478  and  _479
REMARK  201  A    between atoms: _488  and  _490
REMARK  202  A    between atoms: _490  and  _491
REMARK  203  A    between atoms: _490  and  _493
REMARK  204  A    between atoms: _496  and  _498
REMARK  205  A    between atoms: _498  and  _499
REMARK  206  A    between atoms: _501  and  _503
REMARK  207  A    between atoms: _503  and  _504
REMARK  208  A    between atoms: _503  and  _506
REMARK  209  A    between atoms: _506  and  _507
REMARK  210  A    between atoms: _510  and  _512
REMARK  211  A    between atoms: _512  and  _513
REMARK  212  A    between atoms: _512  and  _515
REMARK  213  A    between atoms: _515  and  _516
REMARK  214  A    between atoms: _516  and  _517
REMARK  215  A    between atoms: _519  and  _521
REMARK  216  A    between atoms: _521  and  _522
REMARK  217  A    between atoms: _521  and  _524
REMARK  218  A    between atoms: _524  and  _525
REMARK  219  A    between atoms: _531  and  _533
REMARK  220  A    between atoms: _533  and  _534
REMARK  221  A    between atoms: _533  and  _536
REMARK  222  A    between atoms: _536  and  _537
REMARK  223  A    between atoms: _542  and  _544
REMARK  224  A    between atoms: _544  and  _545
REMARK  225  A    between atoms: _544  and  _547
REMARK  226  A    between atoms: _547  and  _548
REMARK  227  A    between atoms: _558  and  _560
REMARK  228  A    between atoms: _560  and  _561
REMARK  229  A    between atoms: _560  and  _563
REMARK  230  A    between atoms: _566  and  _568
REMARK  231  A    between atoms: _568  and  _569
REMARK  232  A    between atoms: _568  and  _571
REMARK  233  A    between atoms: _571  and  _572
REMARK  234  A    between atoms: _575  and  _577
REMARK  235  A    between atoms: _577  and  _578
REMARK  236  A    between atoms: _577  and  _580
REMARK  237  A    between atoms: _580  and  _581
REMARK  238  A    between atoms: _581  and  _582
REMARK  239  A    between atoms: _584  and  _586
REMARK  240  A    between atoms: _586  and  _587
REMARK  241  A    between atoms: _586  and  _589
REMARK  242  A    between atoms: _589  and  _590
REMARK  243  A    between atoms: _593  and  _595
REMARK  244  A    between atoms: _595  and  _596
REMARK  245  A    between atoms: _595  and  _598
REMARK  246  A    between atoms: _598  and  _599
REMARK  247  A    between atoms: _602  and  _604
REMARK  248  A    between atoms: _604  and  _605
REMARK  249  A    between atoms: _607  and  _609
REMARK  250  A    between atoms: _609  and  _610
REMARK  251  A    between atoms: _609  and  _612
REMARK  252  A    between atoms: _612  and  _613
REMARK  253  A    between atoms: _615  and  _617
REMARK  254  A    between atoms: _617  and  _618
REMARK  255  A    between atoms: _617  and  _620
REMARK  256  A    between atoms: _620  and  _621
REMARK  257  A    between atoms: _631  and  _633
REMARK  258  A    between atoms: _633  and  _634
REMARK  259  A    between atoms: _633  and  _636
REMARK  260  A    between atoms: _636  and  _637
REMARK  261  A    between atoms: _639  and  _641
REMARK  262  A    between atoms: _641  and  _642
REMARK  263  A    between atoms: _641  and  _644
REMARK  264  A    between atoms: _644  and  _645
REMARK  265  A    between atoms: _648  and  _650
REMARK  266  A    between atoms: _650  and  _651
REMARK  267  A    between atoms: _654  and  _656
REMARK  268  A    between atoms: _656  and  _657
REMARK  269  A    between atoms: _656  and  _659
REMARK  270  A    between atoms: _659  and  _660
REMARK  271  A    between atoms: _662  and  _664
REMARK  272  A    between atoms: _664  and  _665
REMARK  273  A    between atoms: _664  and  _667
REMARK  274  A    between atoms: _667  and  _668
REMARK  275  A    between atoms: _668  and  _669
REMARK  276  A    between atoms: _673  and  _674
REMARK  277  A    between atoms: _679  and  _681
REMARK  278  A    between atoms: _681  and  _682
REMARK  279  A    between atoms: _681  and  _684
REMARK  280  A    between atoms: _684  and  _685
REMARK  281  A    between atoms: _687  and  _689
REMARK  282  A    between atoms: _689  and  _690
REMARK  283  A    between atoms: _689  and  _692
REMARK  284  A    between atoms: _692  and  _693
REMARK  285  A    between atoms: _693  and  _694
REMARK  286  A    between atoms: _699  and  _701
REMARK  287  A    between atoms: _701  and  _702
REMARK  288  A    between atoms: _701  and  _704
REMARK  289  A    between atoms: _704  and  _705
REMARK  290  A    between atoms: _705  and  _706
REMARK  291  A    between atoms: _711  and  _713
REMARK  292  A    between atoms: _713  and  _714
REMARK  293  A    between atoms: _713  and  _716
REMARK  294  A    between atoms: _716  and  _717
REMARK  295  A    between atoms: _720  and  _722
REMARK  296  A    between atoms: _722  and  _723
REMARK  297  A    between atoms: _722  and  _725
REMARK  298  A    between atoms: _725  and  _726
REMARK  299  A    between atoms: _729  and  _731
REMARK  300  A    between atoms: _731  and  _732
REMARK  301  A    between atoms: _731  and  _734
REMARK  302  A    between atoms: _734  and  _735
REMARK  303  A    between atoms: _741  and  _743
REMARK  304  A    between atoms: _743  and  _744
REMARK  305  A    between atoms: _743  and  _746
REMARK  306  A    between atoms: _746  and  _747
REMARK  307  A    between atoms: _752  and  _753
REMARK  308  A    between atoms: _755  and  _757
REMARK  309  A    between atoms: _757  and  _758
REMARK  310  A    between atoms: _757  and  _760
REMARK  311  A    between atoms: _760  and  _761
REMARK  312  A    between atoms: _767  and  _769
REMARK  313  A    between atoms: _769  and  _770
REMARK  314  A    between atoms: _769  and  _772
REMARK  315  A    between atoms: _772  and  _773
REMARK  316  A    between atoms: _778  and  _780
REMARK  317  A    between atoms: _780  and  _781
REMARK  318  A    between atoms: _780  and  _783
REMARK  319  A    between atoms: _783  and  _784
REMARK  320  A    between atoms: _784  and  _785
REMARK                            x       y       z     vdW  Elec       q    Type
REMARK                         _______ _______ _______ _____ _____    ______ ____
ROOT
ATOM      1  CA  THR A   1      20.188  36.123  17.007  0.00  0.00    +0.160 C 
ENDROOT
BRANCH   1   2
ATOM      2  N   THR A   1      20.270  37.052  15.868  0.00  0.00    -0.237 NA
ATOM      3  H   THR A   1      19.420  37.209  15.290  0.00  0.00    +0.142 HD
ENDBRANCH   1   2
BRANCH   1   4
ATOM      4  CB  THR A   1      19.518  36.736  18.290  0.00  0.00    +0.134 C 
ATOM      5  CG2 THR A   1      20.120  38.127  18.673  0.00  0.00    +0.034 C 
BRANCH   4   6
ATOM      6  OG1 THR A   1      18.103  36.868  18.073  0.00  0.00    -0.383 OA
ATOM      7  HG1 THR A   1      17.714  35.976  17.890  0.00  0.00    +0.210 HD
ENDBRANCH   4   6
ENDBRANCH   1   4
BRANCH   1   8
ATOM      8  C   THR A   1      19.389  34.902  16.641  0.00  0.00    +0.227 C 
ATOM      9  O   THR A   1      18.723  34.883  15.660  0.00  0.00    -0.287 OA
ENDBRANCH   1   8
TORSDOF 4
REMARK  Name = ../refined-set-2016/3drf/3drf_pocket.pdb
REMARK  320 active torsions:
REMARK  status: ('A' for Active; 'I' for Inactive)
REMARK    1  A    between atoms: _1  and  _3
REMARK    2  A    between atoms: _3  and  _4
REMARK    3  A    between atoms: _3  and  _6
REMARK    4  A    between atoms: _6  and  _7
REMARK    5  A    between atoms: _12  and  _13
REMARK    6  A    between atoms: _15  and  _17
REMARK    7  A    between atoms: _17  and  _18
REMARK    8  A    between atoms: _17  and  _20
REMARK    9  A    between atoms: _20  and  _21
REMARK   10  A    between atoms: _21  and  _22
REMARK   11  A    between atoms: _27  and  _29
REMARK   12  A    between atoms: _29  and  _30
REMARK   13  A    between atoms: _29  and  _32
REMARK   14  A    between atoms: _32  and  _33
REMARK   15  A    between atoms: _35  and  _37
REMARK   16  A    between atoms: _37  and  _38
REMARK   17  A    between atoms: _37  and  _40
REMARK   18  A    between atoms: _40  and  _41
REMARK   19  A    between atoms: _44  and  _46
REMARK   20  A    between atoms: _46  and  _47
REMARK   21  A    between atoms: _46  and  _49
REMARK   22  A    between atoms: _49  and  _50
REMARK   23  A    between atoms: _52  and  _54
REMARK   24  A    between atoms: _54  and  _55
REMARK   25  A    between atoms: _54  and  _57
REMARK   26  A    between atoms: _57  and  _58
REMARK   27  A    between atoms: _60  and  _62
REMARK   28  A    between atoms: _62  and  _63
REMARK   29  A    between atoms: _65  and  _67
REMARK   30  A    between atoms: _67  and  _68
REMARK   31  A    between atoms: _67  and  _70
REMARK   32  A    between atoms: _70  and  _71
REMARK   33  A    between atoms: _73  and  _75
REMARK   34  A    between atoms: _75  and  _76
REMARK   35  A    between atoms: _75  and  _78
REMARK   36  A    between atoms: _78  and  _79
REMARK   37  A    between atoms: _84  and  _86
REMARK   38  A    between atoms: _86  and  _87
REMARK   39  A    between atoms: _86  and  _89
REMARK   40  A    between atoms: _89  and  _90
REMARK   41  A    between atoms: _93  and  _95
REMARK   42  A    between atoms: _95  and  _96
REMARK   43  A    between atoms: _99  and  _101
REMARK   44  A    between atoms: _101  and  _102
REMARK   45  A    between atoms: _101  and  _104
REMARK   46  A    between atoms: _104  and  _105
REMARK   47  A    between atoms: _108  and  _110
REMARK   48  A    between atoms: _110  and  _111
REMARK   49  A    between atoms: _110  and  _113
REMARK   50  A    between atoms: _113  and  _114
REMARK   51  A    between atoms: _120  and  _122
REMARK   52  A    between atoms: _122  and  _123
REMARK   53  A    between atoms: _126  and  _128
REMARK   54  A    between atoms: _128  and  _129
REMARK   55  A    between atoms: _128  and  _131
REMARK   56  A    between atoms: _131  and  _132
REMARK   57  A    between atoms: _135  and  _137
REMARK   58  A    between atoms: _137  and  _138
REMARK   59  A    between atoms: _140  and  _142
REMARK   60  A    between atoms: _142  and  _143
REMARK   61  A    between atoms: _142  and  _145
REMARK   62  A    between atoms: _145  and  _146
REMARK   63  A    between atoms: _146  and  _147
REMARK   64  A    between atoms: _152  and  _154
REMARK   65  A    between atoms: _154  and  _155
REMARK   66  A    between atoms: _157  and  _159
REMARK   67  A    between atoms: _159  and  _160
REMARK   68  A    between atoms: _159  and  _162
REMARK   69  A    between atoms: _162  and  _163
REMARK   70  A    between atoms: _166  and  _168
REMARK   71  A    between atoms: _168  and  _169
REMARK   72  A    between atoms: _168  and  _171
REMARK   73  A    between atoms: _171  and  _172
REMARK   74  A    between atoms: _178  and  _180
REMARK   75  A    between atoms: _180  and  _181
REMARK   76  A    between atoms: _180  and  _183
REMARK   77  A    between atoms: _183  and  _184
REMARK   78  A    between atoms: _187  and  _189
REMARK   79  A    between atoms: _189  and  _190
REMARK   80  A    between atoms: _189  and  _192
REMARK   81  A    between atoms: _192  and  _193
REMARK   82  A    between atoms: _199  and  _201
REMARK   83  A    between atoms: _201  and  _202
REMARK   84  A    between atoms: _201  and  _204
REMARK   85  A    between atoms: _204  and  _205
REMARK   86  A    between atoms: _211  and  _213
REMARK   87  A    between atoms: _213  and  _214
REMARK   88  A    between atoms: _213  and  _216
REMARK   89  A    between atoms: _216  and  _217
REMARK   90  A    between atoms: _220  and  _222
REMARK   91  A    between atoms: _222  and  _223
REMARK   92  A    between atoms: _222  and  _225
REMARK   93  A    between atoms: _225  and  _226
REMARK   94  A    between atoms: _229  and  _231
REMARK   95  A    between atoms: _231  and  _232
REMARK   96  A    between atoms: _231  and  _234
REMARK   97  A    between atoms: _234  and  _235
REMARK   98  A    between atoms: _235  and  _236
REMARK   99  A    between atoms: _236  and  _237
REMARK  100  A    between atoms: _246  and  _248
REMARK  101  A    between atoms: _248  and  _249
REMARK  102  A    between atoms: _248  and  _251
REMARK  103  A    between atoms: _251  and  _252
REMARK  104  A    between atoms: _255  and  _257
REMARK  105  A    between atoms: _257  and  _258
REMARK  106  A    between atoms: _257  and  _260
REMARK  107  A    between atoms: _260  and  _261
REMARK  108  A    between atoms: _263  and  _265
REMARK  109  A    between atoms: _265  and  _266
REMARK  110  A    between atoms: _265  and  _268
REMARK  111  A    between atoms: _268  and  _269
REMARK  112  A    between atoms: _269  and  _270
REMARK  113  A    between atoms: _275  and  _277
REMARK  114  A    between atoms: _277  and  _278
REMARK  115  A    between atoms: _277  and  _280
REMARK  116  A    between atoms: _280  and  _281
REMARK  117  A    between atoms: _283  and  _285
REMARK  118  A    between atoms: _285  and  _286
REMARK  119  A    between atoms: _288  and  _290
REMARK  120  A    between atoms: _290  and  _291
REMARK  121  A    between atoms: _290  and  _293
REMARK  122  A    between atoms: _293  and  _294
REMARK  123  A    between atoms: _299  and  _301
REMARK  124  A    between atoms: _301  and  _302
REMARK  125  A    between atoms: _304  and  _306
REMARK  126  A    between atoms: _306  and  _307
REMARK  127  A    between atoms: _306  and  _309
REMARK  128  A    between atoms: _309  and  _310
REMARK  129  A    between atoms: _315  and  _316
REMARK  130  A    between atoms: _318  and  _320
REMARK  131  A    between atoms: _320  and  _321
REMARK  132  A    between atoms: _320  and  _323
REMARK  133  A    between atoms: _323  and  _324
REMARK  134  A    between atoms: _330  and  _332
REMARK  135  A    between atoms: _332  and  _333
REMARK  136  A    between atoms: _332  and  _335
REMARK  137  A    between atoms: _335  and  _336
REMARK  138  A    between atoms: _339  and  _341
REMARK  139  A    between atoms: _341  and  _342
REMARK  140  A    between atoms: _341  and  _344
REMARK  141  A    between atoms: _344  and  _345
REMARK  142  A    between atoms: _345  and  _346
REMARK  143  A    between atoms: _349  and  _351
REMARK  144  A    between atoms: _351  and  _352
REMARK  145  A    between atoms: _351  and  _354
REMARK  146  A    between atoms: _354  and  _355
REMARK  147  A    between atoms: _358  and  _360
REMARK  148  A    between atoms: _360  and  _361
REMARK  149  A    between atoms: _360  and  _363
REMARK  150  A    between atoms: _363  and  _364
REMARK  151  A    between atoms: _367  and  _369
REMARK  152  A    between atoms: _369  and  _370
REMARK  153  A    between atoms: _372  and  _374
REMARK  154  A    between atoms: _374  and  _375
REMARK  155  A    between atoms: _374  and  _377
REMARK  156  A    between atoms: _380  and  _382
REMARK  157  A    between atoms: _382  and  _383
REMARK  158  A    between atoms: _382  and  _385
REMARK  159  A    between atoms: _385  and  _386
REMARK  160  A    between atoms: _388  and  _390
REMARK  161  A    between atoms: _390  and  _391
REMARK  162  A    between atoms: _390  and  _393
REMARK  163  A    between atoms: _393  and  _394
REMARK  164  A    between atoms: _394  and  _395
REMARK  165  A    between atoms: _397  and  _399
REMARK  166  A    between atoms: _399  and  _400
REMARK  167  A    between atoms: _399  and  _402
REMARK  168  A    between atoms: _402  and  _403
REMARK  169  A    between atoms: _408  and  _409
REMARK  170  A    between atoms: _411  and  _413
REMARK  171  A    between atoms: _413  and  _414
REMARK  172  A    between atoms: _413  and  _416
REMARK  173  A    between atoms: _416  and  _417
REMARK  174  A    between atoms: _420  and  _422
REMARK  175  A    between atoms: _422  and  _423
REMARK  176  A    between atoms: _422  and  _425
REMARK  177  A    between atoms: _425  and  _426
REMARK  178  A    between atoms: _428  and  _430
REMARK  179  A    between atoms: _430  and  _431
REMARK  180  A    between atoms: _430  and  _433
REMARK  181  A    between atoms: _433  and  _434
REMARK  182  A    between atoms: _437  and  _439
REMARK  183  A    between atoms: _439  and  _440
REMARK  184  A    between atoms: _439  and  _442
REMARK  185  A    between atoms: _442  and  _443
REMARK  186  A    between atoms: _448  and  _449
REMARK  187  A    between atoms: _451  and  _453
REMARK  188  A    between atoms: _453  and  _454
REMARK  189  A    between atoms: _453  and  _456
REMARK  190  A    between atoms: _456  and  _457
REMARK  191  A    between atoms: _459  and  _461
REMARK  192  A    between atoms: _461  and  _462
REMARK  193  A    between atoms: _461  and  _464
REMARK  194  A    between atoms: _464  and  _465
REMARK  195  A    between atoms: _471  and  _473
REMARK  196  A    between atoms: _473  and  _474
REMARK  197  A    between atoms: _473  and  _476
REMARK  198  A    between atoms: _476  and  _477
REMARK  199  A    between atoms: _477  and  _478
REMARK  200  A    between atoms: _478  and  _479
REMARK  201  A    between atoms: _488  and  _490
REMARK  202  A    between atoms: _490  and  _491
REMARK  203  A    between atoms: _490  and  _493
REMARK  204  A    between atoms: _496  and  _498
REMARK  205  A    between atoms: _498  and  _499
REMARK  206  A    between atoms: _501  and  _503
REMARK  207  A    between atoms: _503  and  _504
REMARK  208  A    between atoms: _503  and  _506
REMARK  209  A    between atoms: _506  and  _507
REMARK  210  A    between atoms: _510  and  _512
REMARK  211  A    between atoms: _512  and  _513
REMARK  212  A    between atoms: _512  and  _515
REMARK  213  A    between atoms: _515  and  _516
REMARK  214  A    between atoms: _516  and  _517
REMARK  215  A    between atoms: _519  and  _521
REMARK  216  A    between atoms: _521  and  _522
REMARK  217  A    between atoms: _521  and  _524
REMARK  218  A    between atoms: _524  and  _525
REMARK  219  A    between atoms: _531  and  _533
REMARK  220  A    between atoms: _533  and  _534
REMARK  221  A    between atoms: _533  and  _536
REMARK  222  A    between atoms: _536  and  _537
REMARK  223  A    between atoms: _542  and  _544
REMARK  224  A    between atoms: _544  and  _545
REMARK  225  A    between atoms: _544  and  _547
REMARK  226  A    between atoms: _547  and  _548
REMARK  227  A    between atoms: _558  and  _560
REMARK  228  A    between atoms: _560  and  _561
REMARK  229  A    between atoms: _560  and  _563
REMARK  230  A    between atoms: _566  and  _568
REMARK  231  A    between atoms: _568  and  _569
REMARK  232  A    between atoms: _568  and  _571
REMARK  233  A    between atoms: _571  and  _572
REMARK  234  A    between atoms: _575  and  _577
REMARK  235  A    between atoms: _577  and  _578
REMARK  236  A    between atoms: _577  and  _580
REMARK  237  A    between atoms: _580  and  _581
REMARK  238  A    between atoms: _581  and  _582
REMARK  239  A    between atoms: _584  and  _586
REMARK  240  A    between atoms: _586  and  _587
REMARK  241  A    between atoms: _586  and  _589
REMARK  242  A    between atoms: _589  and  _590
REMARK  243  A    between atoms: _593  and  _595
REMARK  244  A    between atoms: _595  and  _596
REMARK  245  A    between atoms: _595  and  _598
REMARK  246  A    between atoms: _598  and  _599
REMARK  247  A    between atoms: _602  and  _604
REMARK  248  A    between atoms: _604  and  _605
REMARK  249  A    between atoms: _607  and  _609
REMARK  250  A    between atoms: _609  and  _610
REMARK  251  A    between atoms: _609  and  _612
REMARK  252  A    between atoms: _612  and  _613
REMARK  253  A    between atoms: _615  and  _617
REMARK  254  A    between atoms: _617  and  _618
REMARK  255  A    between atoms: _617  and  _620
REMARK  256  A    between atoms: _620  and  _621
REMARK  257  A    between atoms: _631  and  _633
REMARK  258  A    between atoms: _633  and  _634
REMARK  259  A    between atoms: _633  and  _636
REMARK  260  A    between atoms: _636  and  _637
REMARK  261  A    between atoms: _639  and  _641
REMARK  262  A    between atoms: _641  and  _642
REMARK  263  A    between atoms: _641  and  _644
REMARK  264  A    between atoms: _644  and  _645
REMARK  265  A    between atoms: _648  and  _650
REMARK  266  A    between atoms: _650  and  _651
REMARK  267  A    between atoms: _654  and  _656
REMARK  268  A    between atoms: _656  and  _657
REMARK  269  A    between atoms: _656  and  _659
REMARK  270  A    between atoms: _659  and  _660
REMARK  271  A    between atoms: _662  and  _664
REMARK  272  A    between atoms: _664  and  _665
REMARK  273  A    between atoms: _664  and  _667
REMARK  274  A    between atoms: _667  and  _668
REMARK  275  A    between atoms: _668  and  _669
REMARK  276  A    between atoms: _673  and  _674
REMARK  277  A    between atoms: _679  and  _681
REMARK  278  A    between atoms: _681  and  _682
REMARK  279  A    between atoms: _681  and  _684
REMARK  280  A    between atoms: _684  and  _685
REMARK  281  A    between atoms: _687  and  _689
REMARK  282  A    between atoms: _689  and  _690
REMARK  283  A    between atoms: _689  and  _692
REMARK  284  A    between atoms: _692  and  _693
REMARK  285  A    between atoms: _693  and  _694
REMARK  286  A    between atoms: _699  and  _701
REMARK  287  A    between atoms: _701  and  _702
REMARK  288  A    between atoms: _701  and  _704
REMARK  289  A    between atoms: _704  and  _705
REMARK  290  A    between atoms: _705  and  _706
REMARK  291  A    between atoms: _711  and  _713
REMARK  292  A    between atoms: _713  and  _714
REMARK  293  A    between atoms: _713  and  _716
REMARK  294  A    between atoms: _716  and  _717
REMARK  295  A    between atoms: _720  and  _722
REMARK  296  A    between atoms: _722  and  _723
REMARK  297  A    between atoms: _722  and  _725
REMARK  298  A    between atoms: _725  and  _726
REMARK  299  A    between atoms: _729  and  _731
REMARK  300  A    between atoms: _731  and  _732
REMARK  301  A    between atoms: _731  and  _734
REMARK  302  A    between atoms: _734  and  _735
REMARK  303  A    between atoms: _741  and  _743
REMARK  304  A    between atoms: _743  and  _744
REMARK  305  A    between atoms: _743  and  _746
REMARK  306  A    between atoms: _746  and  _747
REMARK  307  A    between atoms: _752  and  _753
REMARK  308  A    between atoms: _755  and  _757
REMARK  309  A    between atoms: _757  and  _758
REMARK  310  A    between atoms: _757  and  _760
REMARK  311  A    between atoms: _760  and  _761
REMARK  312  A    between atoms: _767  and  _769
REMARK  313  A    between atoms: _769  and  _770
REMARK  314  A    between atoms: _769  and  _772
REMARK  315  A    between atoms: _772  and  _773
REMARK  316  A    between atoms: _778  and  _780
REMARK  317  A    between atoms: _780  and  _781
REMARK  318  A    between atoms: _780  and  _783
REMARK  319  A    between atoms: _783  and  _784
REMARK  320  A    between atoms: _784  and  _785
REMARK                            x       y       z     vdW  Elec       q    Type
REMARK                         _______ _______ _______ _____ _____    ______ ____
ROOT
ATOM      1  CB  PHE A   1      17.623  36.805  22.801  0.00  0.00    +0.051 C 
ENDROOT
BRANCH   1   2
ATOM      2  CG  PHE A   1      16.110  36.834  22.774  0.00  0.00    -0.020 A 
ATOM      3  CD2 PHE A   1      15.384  36.319  23.780  0.00  0.00    -0.004 A 
ATOM      4  CE2 PHE A   1      13.983  36.351  23.720  0.00  0.00    -0.000 A 
ATOM      5  CZ  PHE A   1      13.350  36.837  22.618  0.00  0.00    -0.000 A 
ATOM      6  CE1 PHE A   1      14.049  37.332  21.603  0.00  0.00    -0.000 A 
ATOM      7  CD1 PHE A   1      15.462  37.332  21.672  0.00  0.00    -0.004 A 
ENDBRANCH   1   2
BRANCH   1   8
ATOM      8  CA  PHE A   1      18.238  35.883  21.692  0.00  0.00    +0.137 C 
BRANCH   8   9
ATOM      9  N   PHE A   1      17.632  34.500  21.682  0.00  0.00    -0.239 NA
ATOM     10  H   PHE A   1      17.262  34.148  20.776  0.00  0.00    +0.142 HD
ENDBRANCH   8   9
BRANCH   8  11
ATOM     11  C   PHE A   1      19.783  35.830  21.769  0.00  0.00    +0.224 C 
ATOM     12  O   PHE A   1      20.427  36.840  21.984  0.00  0.00    -0.287 OA
ENDBRANCH   8  11
ENDBRANCH   1   8
TORSDOF 4
REMARK  Name = ../refined-set-2016/3drf/3drf_pocket.pdb
REMARK  320 active torsions:
REMARK  status: ('A' for Active; 'I' for Inactive)
REMARK    1  A    between atoms: _1  and  _3
REMARK    2  A    between atoms: _3  and  _4
REMARK    3  A    between atoms: _3  and  _6
REMARK    4  A    between atoms: _6  and  _7
REMARK    5  A    between atoms: _12  and  _13
REMARK    6  A    between atoms: _15  and  _17
REMARK    7  A    between atoms: _17  and  _18
REMARK    8  A    between atoms: _17  and  _20
REMARK    9  A    between atoms: _20  and  _21
REMARK   10  A    between atoms: _21  and  _22
REMARK   11  A    between atoms: _27  and  _29
REMARK   12  A    between atoms: _29  and  _30
REMARK   13  A    between atoms: _29  and  _32
REMARK   14  A    between atoms: _32  and  _33
REMARK   15  A    between atoms: _35  and  _37
REMARK   16  A    between atoms: _37  and  _38
REMARK   17  A    between atoms: _37  and  _40
REMARK   18  A    between atoms: _40  and  _41
REMARK   19  A    between atoms: _44  and  _46
REMARK   20  A    between atoms: _46  and  _47
REMARK   21  A    between atoms: _46  and  _49
REMARK   22  A    between atoms: _49  and  _50
REMARK   23  A    between atoms: _52  and  _54
REMARK   24  A    between atoms: _54  and  _55
REMARK   25  A    between atoms: _54  and  _57
REMARK   26  A    between atoms: _57  and  _58
REMARK   27  A    between atoms: _60  and  _62
REMARK   28  A    between atoms: _62  and  _63
REMARK   29  A    between atoms: _65  and  _67
REMARK   30  A    between atoms: _67  and  _68
REMARK   31  A    between atoms: _67  and  _70
REMARK   32  A    between atoms: _70  and  _71
REMARK   33  A    between atoms: _73  and  _75
REMARK   34  A    between atoms: _75  and  _76
REMARK   35  A    between atoms: _75  and  _78
REMARK   36  A    between atoms: _78  and  _79
REMARK   37  A    between atoms: _84  and  _86
REMARK   38  A    between atoms: _86  and  _87
REMARK   39  A    between atoms: _86  and  _89
REMARK   40  A    between atoms: _89  and  _90
REMARK   41  A    between atoms: _93  and  _95
REMARK   42  A    between atoms: _95  and  _96
REMARK   43  A    between atoms: _99  and  _101
REMARK   44  A    between atoms: _101  and  _102
REMARK   45  A    between atoms: _101  and  _104
REMARK   46  A    between atoms: _104  and  _105
REMARK   47  A    between atoms: _108  and  _110
REMARK   48  A    between atoms: _110  and  _111
REMARK   49  A    between atoms: _110  and  _113
REMARK   50  A    between atoms: _113  and  _114
REMARK   51  A    between atoms: _120  and  _122
REMARK   52  A    between atoms: _122  and  _123
REMARK   53  A    between atoms: _126  and  _128
REMARK   54  A    between atoms: _128  and  _129
REMARK   55  A    between atoms: _128  and  _131
REMARK   56  A    between atoms: _131  and  _132
REMARK   57  A    between atoms: _135  and  _137
REMARK   58  A    between atoms: _137  and  _138
REMARK   59  A    between atoms: _140  and  _142
REMARK   60  A    between atoms: _142  and  _143
REMARK   61  A    between atoms: _142  and  _145
REMARK   62  A    between atoms: _145  and  _146
REMARK   63  A    between atoms: _146  and  _147
REMARK   64  A    between atoms: _152  and  _154
REMARK   65  A    between atoms: _154  and  _155
REMARK   66  A    between atoms: _157  and  _159
REMARK   67  A    between atoms: _159  and  _160
REMARK   68  A    between atoms: _159  and  _162
REMARK   69  A    between atoms: _162  and  _163
REMARK   70  A    between atoms: _166  and  _168
REMARK   71  A    between atoms: _168  and  _169
REMARK   72  A    between atoms: _168  and  _171
REMARK   73  A    between atoms: _171  and  _172
REMARK   74  A    between atoms: _178  and  _180
REMARK   75  A    between atoms: _180  and  _181
REMARK   76  A    between atoms: _180  and  _183
REMARK   77  A    between atoms: _183  and  _184
REMARK   78  A    between atoms: _187  and  _189
REMARK   79  A    between atoms: _189  and  _190
REMARK   80  A    between atoms: _189  and  _192
REMARK   81  A    between atoms: _192  and  _193
REMARK   82  A    between atoms: _199  and  _201
REMARK   83  A    between atoms: _201  and  _202
REMARK   84  A    between atoms: _201  and  _204
REMARK   85  A    between atoms: _204  and  _205
REMARK   86  A    between atoms: _211  and  _213
REMARK   87  A    between atoms: _213  and  _214
REMARK   88  A    between atoms: _213  and  _216
REMARK   89  A    between atoms: _216  and  _217
REMARK   90  A    between atoms: _220  and  _222
REMARK   91  A    between atoms: _222  and  _223
REMARK   92  A    between atoms: _222  and  _225
REMARK   93  A    between atoms: _225  and  _226
REMARK   94  A    between atoms: _229  and  _231
REMARK   95  A    between atoms: _231  and  _232
REMARK   96  A    between atoms: _231  and  _234
REMARK   97  A    between atoms: _234  and  _235
REMARK   98  A    between atoms: _235  and  _236
REMARK   99  A    between atoms: _236  and  _237
REMARK  100  A    between atoms: _246  and  _248
REMARK  101  A    between atoms: _248  and  _249
REMARK  102  A    between atoms: _248  and  _251
REMARK  103  A    between atoms: _251  and  _252
REMARK  104  A    between atoms: _255  and  _257
REMARK  105  A    between atoms: _257  and  _258
REMARK  106  A    between atoms: _257  and  _260
REMARK  107  A    between atoms: _260  and  _261
REMARK  108  A    between atoms: _263  and  _265
REMARK  109  A    between atoms: _265  and  _266
REMARK  110  A    between atoms: _265  and  _268
REMARK  111  A    between atoms: _268  and  _269
REMARK  112  A    between atoms: _269  and  _270
REMARK  113  A    between atoms: _275  and  _277
REMARK  114  A    between atoms: _277  and  _278
REMARK  115  A    between atoms: _277  and  _280
REMARK  116  A    between atoms: _280  and  _281
REMARK  117  A    between atoms: _283  and  _285
REMARK  118  A    between atoms: _285  and  _286
REMARK  119  A    between atoms: _288  and  _290
REMARK  120  A    between atoms: _290  and  _291
REMARK  121  A    between atoms: _290  and  _293
REMARK  122  A    between atoms: _293  and  _294
REMARK  123  A    between atoms: _299  and  _301
REMARK  124  A    between atoms: _301  and  _302
REMARK  125  A    between atoms: _304  and  _306
REMARK  126  A    between atoms: _306  and  _307
REMARK  127  A    between atoms: _306  and  _309
REMARK  128  A    between atoms: _309  and  _310
REMARK  129  A    between atoms: _315  and  _316
REMARK  130  A    between atoms: _318  and  _320
REMARK  131  A    between atoms: _320  and  _321
REMARK  132  A    between atoms: _320  and  _323
REMARK  133  A    between atoms: _323  and  _324
REMARK  134  A    between atoms: _330  and  _332
REMARK  135  A    between atoms: _332  and  _333
REMARK  136  A    between atoms: _332  and  _335
REMARK  137  A    between atoms: _335  and  _336
REMARK  138  A    between atoms: _339  and  _341
REMARK  139  A    between atoms: _341  and  _342
REMARK  140  A    between atoms: _341  and  _344
REMARK  141  A    between atoms: _344  and  _345
REMARK  142  A    between atoms: _345  and  _346
REMARK  143  A    between atoms: _349  and  _351
REMARK  144  A    between atoms: _351  and  _352
REMARK  145  A    between atoms: _351  and  _354
REMARK  146  A    between atoms: _354  and  _355
REMARK  147  A    between atoms: _358  and  _360
REMARK  148  A    between atoms: _360  and  _361
REMARK  149  A    between atoms: _360  and  _363
REMARK  150  A    between atoms: _363  and  _364
REMARK  151  A    between atoms: _367  and  _369
REMARK  152  A    between atoms: _369  and  _370
REMARK  153  A    between atoms: _372  and  _374
REMARK  154  A    between atoms: _374  and  _375
REMARK  155  A    between atoms: _374  and  _377
REMARK  156  A    between atoms: _380  and  _382
REMARK  157  A    between atoms: _382  and  _383
REMARK  158  A    between atoms: _382  and  _385
REMARK  159  A    between atoms: _385  and  _386
REMARK  160  A    between atoms: _388  and  _390
REMARK  161  A    between atoms: _390  and  _391
REMARK  162  A    between atoms: _390  and  _393
REMARK  163  A    between atoms: _393  and  _394
REMARK  164  A    between atoms: _394  and  _395
REMARK  165  A    between atoms: _397  and  _399
REMARK  166  A    between atoms: _399  and  _400
REMARK  167  A    between atoms: _399  and  _402
REMARK  168  A    between atoms: _402  and  _403
REMARK  169  A    between atoms: _408  and  _409
REMARK  170  A    between atoms: _411  and  _413
REMARK  171  A    between atoms: _413  and  _414
REMARK  172  A    between atoms: _413  and  _416
REMARK  173  A    between atoms: _416  and  _417
REMARK  174  A    between atoms: _420  and  _422
REMARK  175  A    between atoms: _422  and  _423
REMARK  176  A    between atoms: _422  and  _425
REMARK  177  A    between atoms: _425  and  _426
REMARK  178  A    between atoms: _428  and  _430
REMARK  179  A    between atoms: _430  and  _431
REMARK  180  A    between atoms: _430  and  _433
REMARK  181  A    between atoms: _433  and  _434
REMARK  182  A    between atoms: _437  and  _439
REMARK  183  A    between atoms: _439  and  _440
REMARK  184  A    between atoms: _439  and  _442
REMARK  185  A    between atoms: _442  and  _443
REMARK  186  A    between atoms: _448  and  _449
REMARK  187  A    between atoms: _451  and  _453
REMARK  188  A    between atoms: _453  and  _454
REMARK  189  A    between atoms: _453  and  _456
REMARK  190  A    between atoms: _456  and  _457
REMARK  191  A    between atoms: _459  and  _461
REMARK  192  A    between atoms: _461  and  _462
REMARK  193  A    between atoms: _461  and  _464
REMARK  194  A    between atoms: _464  and  _465
REMARK  195  A    between atoms: _471  and  _473
REMARK  196  A    between atoms: _473  and  _474
REMARK  197  A    between atoms: _473  and  _476
REMARK  198  A    between atoms: _476  and  _477
REMARK  199  A    between atoms: _477  and  _478
REMARK  200  A    between atoms: _478  and  _479
REMARK  201  A    between atoms: _488  and  _490
REMARK  202  A    between atoms: _490  and  _491
REMARK  203  A    between atoms: _490  and  _493
REMARK  204  A    between atoms: _496  and  _498
REMARK  205  A    between atoms: _498  and  _499
REMARK  206  A    between atoms: _501  and  _503
REMARK  207  A    between atoms: _503  and  _504
REMARK  208  A    between atoms: _503  and  _506
REMARK  209  A    between atoms: _506  and  _507
REMARK  210  A    between atoms: _510  and  _512
REMARK  211  A    between atoms: _512  and  _513
REMARK  212  A    between atoms: _512  and  _515
REMARK  213  A    between atoms: _515  and  _516
REMARK  214  A    between atoms: _516  and  _517
REMARK  215  A    between atoms: _519  and  _521
REMARK  216  A    between atoms: _521  and  _522
REMARK  217  A    between atoms: _521  and  _524
REMARK  218  A    between atoms: _524  and  _525
REMARK  219  A    between atoms: _531  and  _533
REMARK  220  A    between atoms: _533  and  _534
REMARK  221  A    between atoms: _533  and  _536
REMARK  222  A    between atoms: _536  and  _537
REMARK  223  A    between atoms: _542  and  _544
REMARK  224  A    between atoms: _544  and  _545
REMARK  225  A    between atoms: _544  and  _547
REMARK  226  A    between atoms: _547  and  _548
REMARK  227  A    between atoms: _558  and  _560
REMARK  228  A    between atoms: _560  and  _561
REMARK  229  A    between atoms: _560  and  _563
REMARK  230  A    between atoms: _566  and  _568
REMARK  231  A    between atoms: _568  and  _569
REMARK  232  A    between atoms: _568  and  _571
REMARK  233  A    between atoms: _571  and  _572
REMARK  234  A    between atoms: _575  and  _577
REMARK  235  A    between atoms: _577  and  _578
REMARK  236  A    between atoms: _577  and  _580
REMARK  237  A    between atoms: _580  and  _581
REMARK  238  A    between atoms: _581  and  _582
REMARK  239  A    between atoms: _584  and  _586
REMARK  240  A    between atoms: _586  and  _587
REMARK  241  A    between atoms: _586  and  _589
REMARK  242  A    between atoms: _589  and  _590
REMARK  243  A    between atoms: _593  and  _595
REMARK  244  A    between atoms: _595  and  _596
REMARK  245  A    between atoms: _595  and  _598
REMARK  246  A    between atoms: _598  and  _599
REMARK  247  A    between atoms: _602  and  _604
REMARK  248  A    between atoms: _604  and  _605
REMARK  249  A    between atoms: _607  and  _609
REMARK  250  A    between atoms: _609  and  _610
REMARK  251  A    between atoms: _609  and  _612
REMARK  252  A    between atoms: _612  and  _613
REMARK  253  A    between atoms: _615  and  _617
REMARK  254  A    between atoms: _617  and  _618
REMARK  255  A    between atoms: _617  and  _620
REMARK  256  A    between atoms: _620  and  _621
REMARK  257  A    between atoms: _631  and  _633
REMARK  258  A    between atoms: _633  and  _634
REMARK  259  A    between atoms: _633  and  _636
REMARK  260  A    between atoms: _636  and  _637
REMARK  261  A    between atoms: _639  and  _641
REMARK  262  A    between atoms: _641  and  _642
REMARK  263  A    between atoms: _641  and  _644
REMARK  264  A    between atoms: _644  and  _645
REMARK  265  A    between atoms: _648  and  _650
REMARK  266  A    between atoms: _650  and  _651
REMARK  267  A    between atoms: _654  and  _656
REMARK  268  A    between atoms: _656  and  _657
REMARK  269  A    between atoms: _656  and  _659
REMARK  270  A    between atoms: _659  and  _660
REMARK  271  A    between atoms: _662  and  _664
REMARK  272  A    between atoms: _664  and  _665
REMARK  273  A    between atoms: _664  and  _667
REMARK  274  A    between atoms: _667  and  _668
REMARK  275  A    between atoms: _668  and  _669
REMARK  276  A    between atoms: _673  and  _674
REMARK  277  A    between atoms: _679  and  _681
REMARK  278  A    between atoms: _681  and  _682
REMARK  279  A    between atoms: _681  and  _684
REMARK  280  A    between atoms: _684  and  _685
REMARK  281  A    between atoms: _687  and  _689
REMARK  282  A    between atoms: _689  and  _690
REMARK  283  A    between atoms: _689  and  _692
REMARK  284  A    between atoms: _692  and  _693
REMARK  285  A    between atoms: _693  and  _694
REMARK  286  A    between atoms: _699  and  _701
REMARK  287  A    between atoms: _701  and  _702
REMARK  288  A    between atoms: _701  and  _704
REMARK  289  A    between atoms: _704  and  _705
REMARK  290  A    between atoms: _705  and  _706
REMARK  291  A    between atoms: _711  and  _713
REMARK  292  A    between atoms: _713  and  _714
REMARK  293  A    between atoms: _713  and  _716
REMARK  294  A    between atoms: _716  and  _717
REMARK  295  A    between atoms: _720  and  _722
REMARK  296  A    between atoms: _722  and  _723
REMARK  297  A    between atoms: _722  and  _725
REMARK  298  A    between atoms: _725  and  _726
REMARK  299  A    between atoms: _729  and  _731
REMARK  300  A    between atoms: _731  and  _732
REMARK  301  A    between atoms: _731  and  _734
REMARK  302  A    between atoms: _734  and  _735
REMARK  303  A    between atoms: _741  and  _743
REMARK  304  A    between atoms: _743  and  _744
REMARK  305  A    between atoms: _743  and  _746
REMARK  306  A    between atoms: _746  and  _747
REMARK  307  A    between atoms: _752  and  _753
REMARK  308  A    between atoms: _755  and  _757
REMARK  309  A    between atoms: _757  and  _758
REMARK  310  A    between atoms: _757  and  _760
REMARK  311  A    between atoms: _760  and  _761
REMARK  312  A    between atoms: _767  and  _769
REMARK  313  A    between atoms: _769  and  _770
REMARK  314  A    between atoms: _769  and  _772
REMARK  315  A    between atoms: _772  and  _773
REMARK  316  A    between atoms: _778  and  _780
REMARK  317  A    between atoms: _780  and  _781
REMARK  318  A    between atoms: _780  and  _783
REMARK  319  A    between atoms: _783  and  _784
REMARK  320  A    between atoms: _784  and  _785
REMARK                            x       y       z     vdW  Elec       q    Type
REMARK                         _______ _______ _______ _____ _____    ______ ____
ROOT
ATOM      1  CB  PHE A   1      25.256  37.167  19.292  0.00  0.00    +0.051 C 
ENDROOT
BRANCH   1   2
ATOM      2  CG  PHE A   1      24.961  38.449  20.061  0.00  0.00    -0.020 A 
ATOM      3  CD2 PHE A   1      25.493  38.659  21.312  0.00  0.00    -0.004 A 
ATOM      4  CE2 PHE A   1      25.238  39.830  22.018  0.00  0.00    -0.000 A 
ATOM      5  CZ  PHE A   1      24.469  40.797  21.465  0.00  0.00    -0.000 A 
ATOM      6  CE1 PHE A   1      23.915  40.613  20.183  0.00  0.00    -0.000 A 
ATOM      7  CD1 PHE A   1      24.165  39.431  19.514  0.00  0.00    -0.004 A 
ENDBRANCH   1   2
BRANCH   1   8
ATOM      8  CA  PHE A   1      24.011  36.281  19.027  0.00  0.00    +0.137 C 
BRANCH   8   9
ATOM      9  N   PHE A   1      23.405  35.796  20.290  0.00  0.00    -0.239 NA
ATOM     10  H   PHE A   1      23.817  36.094  21.197  0.00  0.00    +0.142 HD
ENDBRANCH   8   9
BRANCH   8  11
ATOM     11  C   PHE A   1      24.477  35.131  18.151  0.00  0.00    +0.224 C 
ATOM     12  O   PHE A   1      25.039  34.181  18.627  0.00  0.00    -0.287 OA
ENDBRANCH   8  11
ENDBRANCH   1   8
TORSDOF 4
REMARK  Name = ../refined-set-2016/3drf/3drf_pocket.pdb
REMARK  320 active torsions:
REMARK  status: ('A' for Active; 'I' for Inactive)
REMARK    1  A    between atoms: _1  and  _3
REMARK    2  A    between atoms: _3  and  _4
REMARK    3  A    between atoms: _3  and  _6
REMARK    4  A    between atoms: _6  and  _7
REMARK    5  A    between atoms: _12  and  _13
REMARK    6  A    between atoms: _15  and  _17
REMARK    7  A    between atoms: _17  and  _18
REMARK    8  A    between atoms: _17  and  _20
REMARK    9  A    between atoms: _20  and  _21
REMARK   10  A    between atoms: _21  and  _22
REMARK   11  A    between atoms: _27  and  _29
REMARK   12  A    between atoms: _29  and  _30
REMARK   13  A    between atoms: _29  and  _32
REMARK   14  A    between atoms: _32  and  _33
REMARK   15  A    between atoms: _35  and  _37
REMARK   16  A    between atoms: _37  and  _38
REMARK   17  A    between atoms: _37  and  _40
REMARK   18  A    between atoms: _40  and  _41
REMARK   19  A    between atoms: _44  and  _46
REMARK   20  A    between atoms: _46  and  _47
REMARK   21  A    between atoms: _46  and  _49
REMARK   22  A    between atoms: _49  and  _50
REMARK   23  A    between atoms: _52  and  _54
REMARK   24  A    between atoms: _54  and  _55
REMARK   25  A    between atoms: _54  and  _57
REMARK   26  A    between atoms: _57  and  _58
REMARK   27  A    between atoms: _60  and  _62
REMARK   28  A    between atoms: _62  and  _63
REMARK   29  A    between atoms: _65  and  _67
REMARK   30  A    between atoms: _67  and  _68
REMARK   31  A    between atoms: _67  and  _70
REMARK   32  A    between atoms: _70  and  _71
REMARK   33  A    between atoms: _73  and  _75
REMARK   34  A    between atoms: _75  and  _76
REMARK   35  A    between atoms: _75  and  _78
REMARK   36  A    between atoms: _78  and  _79
REMARK   37  A    between atoms: _84  and  _86
REMARK   38  A    between atoms: _86  and  _87
REMARK   39  A    between atoms: _86  and  _89
REMARK   40  A    between atoms: _89  and  _90
REMARK   41  A    between atoms: _93  and  _95
REMARK   42  A    between atoms: _95  and  _96
REMARK   43  A    between atoms: _99  and  _101
REMARK   44  A    between atoms: _101  and  _102
REMARK   45  A    between atoms: _101  and  _104
REMARK   46  A    between atoms: _104  and  _105
REMARK   47  A    between atoms: _108  and  _110
REMARK   48  A    between atoms: _110  and  _111
REMARK   49  A    between atoms: _110  and  _113
REMARK   50  A    between atoms: _113  and  _114
REMARK   51  A    between atoms: _120  and  _122
REMARK   52  A    between atoms: _122  and  _123
REMARK   53  A    between atoms: _126  and  _128
REMARK   54  A    between atoms: _128  and  _129
REMARK   55  A    between atoms: _128  and  _131
REMARK   56  A    between atoms: _131  and  _132
REMARK   57  A    between atoms: _135  and  _137
REMARK   58  A    between atoms: _137  and  _138
REMARK   59  A    between atoms: _140  and  _142
REMARK   60  A    between atoms: _142  and  _143
REMARK   61  A    between atoms: _142  and  _145
REMARK   62  A    between atoms: _145  and  _146
REMARK   63  A    between atoms: _146  and  _147
REMARK   64  A    between atoms: _152  and  _154
REMARK   65  A    between atoms: _154  and  _155
REMARK   66  A    between atoms: _157  and  _159
REMARK   67  A    between atoms: _159  and  _160
REMARK   68  A    between atoms: _159  and  _162
REMARK   69  A    between atoms: _162  and  _163
REMARK   70  A    between atoms: _166  and  _168
REMARK   71  A    between atoms: _168  and  _169
REMARK   72  A    between atoms: _168  and  _171
REMARK   73  A    between atoms: _171  and  _172
REMARK   74  A    between atoms: _178  and  _180
REMARK   75  A    between atoms: _180  and  _181
REMARK   76  A    between atoms: _180  and  _183
REMARK   77  A    between atoms: _183  and  _184
REMARK   78  A    between atoms: _187  and  _189
REMARK   79  A    between atoms: _189  and  _190
REMARK   80  A    between atoms: _189  and  _192
REMARK   81  A    between atoms: _192  and  _193
REMARK   82  A    between atoms: _199  and  _201
REMARK   83  A    between atoms: _201  and  _202
REMARK   84  A    between atoms: _201  and  _204
REMARK   85  A    between atoms: _204  and  _205
REMARK   86  A    between atoms: _211  and  _213
REMARK   87  A    between atoms: _213  and  _214
REMARK   88  A    between atoms: _213  and  _216
REMARK   89  A    between atoms: _216  and  _217
REMARK   90  A    between atoms: _220  and  _222
REMARK   91  A    between atoms: _222  and  _223
REMARK   92  A    between atoms: _222  and  _225
REMARK   93  A    between atoms: _225  and  _226
REMARK   94  A    between atoms: _229  and  _231
REMARK   95  A    between atoms: _231  and  _232
REMARK   96  A    between atoms: _231  and  _234
REMARK   97  A    between atoms: _234  and  _235
REMARK   98  A    between atoms: _235  and  _236
REMARK   99  A    between atoms: _236  and  _237
REMARK  100  A    between atoms: _246  and  _248
REMARK  101  A    between atoms: _248  and  _249
REMARK  102  A    between atoms: _248  and  _251
REMARK  103  A    between atoms: _251  and  _252
REMARK  104  A    between atoms: _255  and  _257
REMARK  105  A    between atoms: _257  and  _258
REMARK  106  A    between atoms: _257  and  _260
REMARK  107  A    between atoms: _260  and  _261
REMARK  108  A    between atoms: _263  and  _265
REMARK  109  A    between atoms: _265  and  _266
REMARK  110  A    between atoms: _265  and  _268
REMARK  111  A    between atoms: _268  and  _269
REMARK  112  A    between atoms: _269  and  _270
REMARK  113  A    between atoms: _275  and  _277
REMARK  114  A    between atoms: _277  and  _278
REMARK  115  A    between atoms: _277  and  _280
REMARK  116  A    between atoms: _280  and  _281
REMARK  117  A    between atoms: _283  and  _285
REMARK  118  A    between atoms: _285  and  _286
REMARK  119  A    between atoms: _288  and  _290
REMARK  120  A    between atoms: _290  and  _291
REMARK  121  A    between atoms: _290  and  _293
REMARK  122  A    between atoms: _293  and  _294
REMARK  123  A    between atoms: _299  and  _301
REMARK  124  A    between atoms: _301  and  _302
REMARK  125  A    between atoms: _304  and  _306
REMARK  126  A    between atoms: _306  and  _307
REMARK  127  A    between atoms: _306  and  _309
REMARK  128  A    between atoms: _309  and  _310
REMARK  129  A    between atoms: _315  and  _316
REMARK  130  A    between atoms: _318  and  _320
REMARK  131  A    between atoms: _320  and  _321
REMARK  132  A    between atoms: _320  and  _323
REMARK  133  A    between atoms: _323  and  _324
REMARK  134  A    between atoms: _330  and  _332
REMARK  135  A    between atoms: _332  and  _333
REMARK  136  A    between atoms: _332  and  _335
REMARK  137  A    between atoms: _335  and  _336
REMARK  138  A    between atoms: _339  and  _341
REMARK  139  A    between atoms: _341  and  _342
REMARK  140  A    between atoms: _341  and  _344
REMARK  141  A    between atoms: _344  and  _345
REMARK  142  A    between atoms: _345  and  _346
REMARK  143  A    between atoms: _349  and  _351
REMARK  144  A    between atoms: _351  and  _352
REMARK  145  A    between atoms: _351  and  _354
REMARK  146  A    between atoms: _354  and  _355
REMARK  147  A    between atoms: _358  and  _360
REMARK  148  A    between atoms: _360  and  _361
REMARK  149  A    between atoms: _360  and  _363
REMARK  150  A    between atoms: _363  and  _364
REMARK  151  A    between atoms: _367  and  _369
REMARK  152  A    between atoms: _369  and  _370
REMARK  153  A    between atoms: _372  and  _374
REMARK  154  A    between atoms: _374  and  _375
REMARK  155  A    between atoms: _374  and  _377
REMARK  156  A    between atoms: _380  and  _382
REMARK  157  A    between atoms: _382  and  _383
REMARK  158  A    between atoms: _382  and  _385
REMARK  159  A    between atoms: _385  and  _386
REMARK  160  A    between atoms: _388  and  _390
REMARK  161  A    between atoms: _390  and  _391
REMARK  162  A    between atoms: _390  and  _393
REMARK  163  A    between atoms: _393  and  _394
REMARK  164  A    between atoms: _394  and  _395
REMARK  165  A    between atoms: _397  and  _399
REMARK  166  A    between atoms: _399  and  _400
REMARK  167  A    between atoms: _399  and  _402
REMARK  168  A    between atoms: _402  and  _403
REMARK  169  A    between atoms: _408  and  _409
REMARK  170  A    between atoms: _411  and  _413
REMARK  171  A    between atoms: _413  and  _414
REMARK  172  A    between atoms: _413  and  _416
REMARK  173  A    between atoms: _416  and  _417
REMARK  174  A    between atoms: _420  and  _422
REMARK  175  A    between atoms: _422  and  _423
REMARK  176  A    between atoms: _422  and  _425
REMARK  177  A    between atoms: _425  and  _426
REMARK  178  A    between atoms: _428  and  _430
REMARK  179  A    between atoms: _430  and  _431
REMARK  180  A    between atoms: _430  and  _433
REMARK  181  A    between atoms: _433  and  _434
REMARK  182  A    between atoms: _437  and  _439
REMARK  183  A    between atoms: _439  and  _440
REMARK  184  A    between atoms: _439  and  _442
REMARK  185  A    between atoms: _442  and  _443
REMARK  186  A    between atoms: _448  and  _449
REMARK  187  A    between atoms: _451  and  _453
REMARK  188  A    between atoms: _453  and  _454
REMARK  189  A    between atoms: _453  and  _456
REMARK  190  A    between atoms: _456  and  _457
REMARK  191  A    between atoms: _459  and  _461
REMARK  192  A    between atoms: _461  and  _462
REMARK  193  A    between atoms: _461  and  _464
REMARK  194  A    between atoms: _464  and  _465
REMARK  195  A    between atoms: _471  and  _473
REMARK  196  A    between atoms: _473  and  _474
REMARK  197  A    between atoms: _473  and  _476
REMARK  198  A    between atoms: _476  and  _477
REMARK  199  A    between atoms: _477  and  _478
REMARK  200  A    between atoms: _478  and  _479
REMARK  201  A    between atoms: _488  and  _490
REMARK  202  A    between atoms: _490  and  _491
REMARK  203  A    between atoms: _490  and  _493
REMARK  204  A    between atoms: _496  and  _498
REMARK  205  A    between atoms: _498  and  _499
REMARK  206  A    between atoms: _501  and  _503
REMARK  207  A    between atoms: _503  and  _504
REMARK  208  A    between atoms: _503  and  _506
REMARK  209  A    between atoms: _506  and  _507
REMARK  210  A    between atoms: _510  and  _512
REMARK  211  A    between atoms: _512  and  _513
REMARK  212  A    between atoms: _512  and  _515
REMARK  213  A    between atoms: _515  and  _516
REMARK  214  A    between atoms: _516  and  _517
REMARK  215  A    between atoms: _519  and  _521
REMARK  216  A    between atoms: _521  and  _522
REMARK  217  A    between atoms: _521  and  _524
REMARK  218  A    between atoms: _524  and  _525
REMARK  219  A    between atoms: _531  and  _533
REMARK  220  A    between atoms: _533  and  _534
REMARK  221  A    between atoms: _533  and  _536
REMARK  222  A    between atoms: _536  and  _537
REMARK  223  A    between atoms: _542  and  _544
REMARK  224  A    between atoms: _544  and  _545
REMARK  225  A    between atoms: _544  and  _547
REMARK  226  A    between atoms: _547  and  _548
REMARK  227  A    between atoms: _558  and  _560
REMARK  228  A    between atoms: _560  and  _561
REMARK  229  A    between atoms: _560  and  _563
REMARK  230  A    between atoms: _566  and  _568
REMARK  231  A    between atoms: _568  and  _569
REMARK  232  A    between atoms: _568  and  _571
REMARK  233  A    between atoms: _571  and  _572
REMARK  234  A    between atoms: _575  and  _577
REMARK  235  A    between atoms: _577  and  _578
REMARK  236  A    between atoms: _577  and  _580
REMARK  237  A    between atoms: _580  and  _581
REMARK  238  A    between atoms: _581  and  _582
REMARK  239  A    between atoms: _584  and  _586
REMARK  240  A    between atoms: _586  and  _587
REMARK  241  A    between atoms: _586  and  _589
REMARK  242  A    between atoms: _589  and  _590
REMARK  243  A    between atoms: _593  and  _595
REMARK  244  A    between atoms: _595  and  _596
REMARK  245  A    between atoms: _595  and  _598
REMARK  246  A    between atoms: _598  and  _599
REMARK  247  A    between atoms: _602  and  _604
REMARK  248  A    between atoms: _604  and  _605
REMARK  249  A    between atoms: _607  and  _609
REMARK  250  A    between atoms: _609  and  _610
REMARK  251  A    between atoms: _609  and  _612
REMARK  252  A    between atoms: _612  and  _613
REMARK  253  A    between atoms: _615  and  _617
REMARK  254  A    between atoms: _617  and  _618
REMARK  255  A    between atoms: _617  and  _620
REMARK  256  A    between atoms: _620  and  _621
REMARK  257  A    between atoms: _631  and  _633
REMARK  258  A    between atoms: _633  and  _634
REMARK  259  A    between atoms: _633  and  _636
REMARK  260  A    between atoms: _636  and  _637
REMARK  261  A    between atoms: _639  and  _641
REMARK  262  A    between atoms: _641  and  _642
REMARK  263  A    between atoms: _641  and  _644
REMARK  264  A    between atoms: _644  and  _645
REMARK  265  A    between atoms: _648  and  _650
REMARK  266  A    between atoms: _650  and  _651
REMARK  267  A    between atoms: _654  and  _656
REMARK  268  A    between atoms: _656  and  _657
REMARK  269  A    between atoms: _656  and  _659
REMARK  270  A    between atoms: _659  and  _660
REMARK  271  A    between atoms: _662  and  _664
REMARK  272  A    between atoms: _664  and  _665
REMARK  273  A    between atoms: _664  and  _667
REMARK  274  A    between atoms: _667  and  _668
REMARK  275  A    between atoms: _668  and  _669
REMARK  276  A    between atoms: _673  and  _674
REMARK  277  A    between atoms: _679  and  _681
REMARK  278  A    between atoms: _681  and  _682
REMARK  279  A    between atoms: _681  and  _684
REMARK  280  A    between atoms: _684  and  _685
REMARK  281  A    between atoms: _687  and  _689
REMARK  282  A    between atoms: _689  and  _690
REMARK  283  A    between atoms: _689  and  _692
REMARK  284  A    between atoms: _692  and  _693
REMARK  285  A    between atoms: _693  and  _694
REMARK  286  A    between atoms: _699  and  _701
REMARK  287  A    between atoms: _701  and  _702
REMARK  288  A    between atoms: _701  and  _704
REMARK  289  A    between atoms: _704  and  _705
REMARK  290  A    between atoms: _705  and  _706
REMARK  291  A    between atoms: _711  and  _713
REMARK  292  A    between atoms: _713  and  _714
REMARK  293  A    between atoms: _713  and  _716
REMARK  294  A    between atoms: _716  and  _717
REMARK  295  A    between atoms: _720  and  _722
REMARK  296  A    between atoms: _722  and  _723
REMARK  297  A    between atoms: _722  and  _725
REMARK  298  A    between atoms: _725  and  _726
REMARK  299  A    between atoms: _729  and  _731
REMARK  300  A    between atoms: _731  and  _732
REMARK  301  A    between atoms: _731  and  _734
REMARK  302  A    between atoms: _734  and  _735
REMARK  303  A    between atoms: _741  and  _743
REMARK  304  A    between atoms: _743  and  _744
REMARK  305  A    between atoms: _743  and  _746
REMARK  306  A    between atoms: _746  and  _747
REMARK  307  A    between atoms: _752  and  _753
REMARK  308  A    between atoms: _755  and  _757
REMARK  309  A    between atoms: _757  and  _758
REMARK  310  A    between atoms: _757  and  _760
REMARK  311  A    between atoms: _760  and  _761
REMARK  312  A    between atoms: _767  and  _769
REMARK  313  A    between atoms: _769  and  _770
REMARK  314  A    between atoms: _769  and  _772
REMARK  315  A    between atoms: _772  and  _773
REMARK  316  A    between atoms: _778  and  _780
REMARK  317  A    between atoms: _780  and  _781
REMARK  318  A    between atoms: _780  and  _783
REMARK  319  A    between atoms: _783  and  _784
REMARK  320  A    between atoms: _784  and  _785
REMARK                            x       y       z     vdW  Elec       q    Type
REMARK                         _______ _______ _______ _____ _____    ______ ____
ROOT
ATOM      1  CA  ILE A   1      24.292  58.454  24.782  0.00  0.00    +0.133 C 
ENDROOT
BRANCH   1   2
ATOM      2  N   ILE A   1      24.807  58.689  23.419  0.00  0.00    -0.239 NA
ATOM      3  H   ILE A   1      25.455  57.999  22.988  0.00  0.00    +0.142 HD
ENDBRANCH   1   2
BRANCH   1   4
ATOM      4  C   ILE A   1      25.157  59.104  25.890  0.00  0.00    +0.224 C 
ATOM      5  O   ILE A   1      24.641  59.667  26.811  0.00  0.00    -0.287 OA
ENDBRANCH   1   4
BRANCH   1   6
ATOM      6  CB  ILE A   1      24.171  56.912  25.036  0.00  0.00    +0.023 C 
ATOM      7  CG2 ILE A   1      23.799  56.682  26.494  0.00  0.00    +0.002 C 
BRANCH   6   8
ATOM      8  CG1 ILE A   1      23.098  56.343  24.053  0.00  0.00    +0.002 C 
ATOM      9  CD1 ILE A   1      22.970  54.769  24.170  0.00  0.00    +0.000 C 
ENDBRANCH   6   8
ENDBRANCH   1   6
TORSDOF 4
REMARK  Name = ../refined-set-2016/3drf/3drf_pocket.pdb
REMARK  320 active torsions:
REMARK  status: ('A' for Active; 'I' for Inactive)
REMARK    1  A    between atoms: _1  and  _3
REMARK    2  A    between atoms: _3  and  _4
REMARK    3  A    between atoms: _3  and  _6
REMARK    4  A    between atoms: _6  and  _7
REMARK    5  A    between atoms: _12  and  _13
REMARK    6  A    between atoms: _15  and  _17
REMARK    7  A    between atoms: _17  and  _18
REMARK    8  A    between atoms: _17  and  _20
REMARK    9  A    between atoms: _20  and  _21
REMARK   10  A    between atoms: _21  and  _22
REMARK   11  A    between atoms: _27  and  _29
REMARK   12  A    between atoms: _29  and  _30
REMARK   13  A    between atoms: _29  and  _32
REMARK   14  A    between atoms: _32  and  _33
REMARK   15  A    between atoms: _35  and  _37
REMARK   16  A    between atoms: _37  and  _38
REMARK   17  A    between atoms: _37  and  _40
REMARK   18  A    between atoms: _40  and  _41
REMARK   19  A    between atoms: _44  and  _46
REMARK   20  A    between atoms: _46  and  _47
REMARK   21  A    between atoms: _46  and  _49
REMARK   22  A    between atoms: _49  and  _50
REMARK   23  A    between atoms: _52  and  _54
REMARK   24  A    between atoms: _54  and  _55
REMARK   25  A    between atoms: _54  and  _57
REMARK   26  A    between atoms: _57  and  _58
REMARK   27  A    between atoms: _60  and  _62
REMARK   28  A    between atoms: _62  and  _63
REMARK   29  A    between atoms: _65  and  _67
REMARK   30  A    between atoms: _67  and  _68
REMARK   31  A    between atoms: _67  and  _70
REMARK   32  A    between atoms: _70  and  _71
REMARK   33  A    between atoms: _73  and  _75
REMARK   34  A    between atoms: _75  and  _76
REMARK   35  A    between atoms: _75  and  _78
REMARK   36  A    between atoms: _78  and  _79
REMARK   37  A    between atoms: _84  and  _86
REMARK   38  A    between atoms: _86  and  _87
REMARK   39  A    between atoms: _86  and  _89
REMARK   40  A    between atoms: _89  and  _90
REMARK   41  A    between atoms: _93  and  _95
REMARK   42  A    between atoms: _95  and  _96
REMARK   43  A    between atoms: _99  and  _101
REMARK   44  A    between atoms: _101  and  _102
REMARK   45  A    between atoms: _101  and  _104
REMARK   46  A    between atoms: _104  and  _105
REMARK   47  A    between atoms: _108  and  _110
REMARK   48  A    between atoms: _110  and  _111
REMARK   49  A    between atoms: _110  and  _113
REMARK   50  A    between atoms: _113  and  _114
REMARK   51  A    between atoms: _120  and  _122
REMARK   52  A    between atoms: _122  and  _123
REMARK   53  A    between atoms: _126  and  _128
REMARK   54  A    between atoms: _128  and  _129
REMARK   55  A    between atoms: _128  and  _131
REMARK   56  A    between atoms: _131  and  _132
REMARK   57  A    between atoms: _135  and  _137
REMARK   58  A    between atoms: _137  and  _138
REMARK   59  A    between atoms: _140  and  _142
REMARK   60  A    between atoms: _142  and  _143
REMARK   61  A    between atoms: _142  and  _145
REMARK   62  A    between atoms: _145  and  _146
REMARK   63  A    between atoms: _146  and  _147
REMARK   64  A    between atoms: _152  and  _154
REMARK   65  A    between atoms: _154  and  _155
REMARK   66  A    between atoms: _157  and  _159
REMARK   67  A    between atoms: _159  and  _160
REMARK   68  A    between atoms: _159  and  _162
REMARK   69  A    between atoms: _162  and  _163
REMARK   70  A    between atoms: _166  and  _168
REMARK   71  A    between atoms: _168  and  _169
REMARK   72  A    between atoms: _168  and  _171
REMARK   73  A    between atoms: _171  and  _172
REMARK   74  A    between atoms: _178  and  _180
REMARK   75  A    between atoms: _180  and  _181
REMARK   76  A    between atoms: _180  and  _183
REMARK   77  A    between atoms: _183  and  _184
REMARK   78  A    between atoms: _187  and  _189
REMARK   79  A    between atoms: _189  and  _190
REMARK   80  A    between atoms: _189  and  _192
REMARK   81  A    between atoms: _192  and  _193
REMARK   82  A    between atoms: _199  and  _201
REMARK   83  A    between atoms: _201  and  _202
REMARK   84  A    between atoms: _201  and  _204
REMARK   85  A    between atoms: _204  and  _205
REMARK   86  A    between atoms: _211  and  _213
REMARK   87  A    between atoms: _213  and  _214
REMARK   88  A    between atoms: _213  and  _216
REMARK   89  A    between atoms: _216  and  _217
REMARK   90  A    between atoms: _220  and  _222
REMARK   91  A    between atoms: _222  and  _223
REMARK   92  A    between atoms: _222  and  _225
REMARK   93  A    between atoms: _225  and  _226
REMARK   94  A    between atoms: _229  and  _231
REMARK   95  A    between atoms: _231  and  _232
REMARK   96  A    between atoms: _231  and  _234
REMARK   97  A    between atoms: _234  and  _235
REMARK   98  A    between atoms: _235  and  _236
REMARK   99  A    between atoms: _236  and  _237
REMARK  100  A    between atoms: _246  and  _248
REMARK  101  A    between atoms: _248  and  _249
REMARK  102  A    between atoms: _248  and  _251
REMARK  103  A    between atoms: _251  and  _252
REMARK  104  A    between atoms: _255  and  _257
REMARK  105  A    between atoms: _257  and  _258
REMARK  106  A    between atoms: _257  and  _260
REMARK  107  A    between atoms: _260  and  _261
REMARK  108  A    between atoms: _263  and  _265
REMARK  109  A    between atoms: _265  and  _266
REMARK  110  A    between atoms: _265  and  _268
REMARK  111  A    between atoms: _268  and  _269
REMARK  112  A    between atoms: _269  and  _270
REMARK  113  A    between atoms: _275  and  _277
REMARK  114  A    between atoms: _277  and  _278
REMARK  115  A    between atoms: _277  and  _280
REMARK  116  A    between atoms: _280  and  _281
REMARK  117  A    between atoms: _283  and  _285
REMARK  118  A    between atoms: _285  and  _286
REMARK  119  A    between atoms: _288  and  _290
REMARK  120  A    between atoms: _290  and  _291
REMARK  121  A    between atoms: _290  and  _293
REMARK  122  A    between atoms: _293  and  _294
REMARK  123  A    between atoms: _299  and  _301
REMARK  124  A    between atoms: _301  and  _302
REMARK  125  A    between atoms: _304  and  _306
REMARK  126  A    between atoms: _306  and  _307
REMARK  127  A    between atoms: _306  and  _309
REMARK  128  A    between atoms: _309  and  _310
REMARK  129  A    between atoms: _315  and  _316
REMARK  130  A    between atoms: _318  and  _320
REMARK  131  A    between atoms: _320  and  _321
REMARK  132  A    between atoms: _320  and  _323
REMARK  133  A    between atoms: _323  and  _324
REMARK  134  A    between atoms: _330  and  _332
REMARK  135  A    between atoms: _332  and  _333
REMARK  136  A    between atoms: _332  and  _335
REMARK  137  A    between atoms: _335  and  _336
REMARK  138  A    between atoms: _339  and  _341
REMARK  139  A    between atoms: _341  and  _342
REMARK  140  A    between atoms: _341  and  _344
REMARK  141  A    between atoms: _344  and  _345
REMARK  142  A    between atoms: _345  and  _346
REMARK  143  A    between atoms: _349  and  _351
REMARK  144  A    between atoms: _351  and  _352
REMARK  145  A    between atoms: _351  and  _354
REMARK  146  A    between atoms: _354  and  _355
REMARK  147  A    between atoms: _358  and  _360
REMARK  148  A    between atoms: _360  and  _361
REMARK  149  A    between atoms: _360  and  _363
REMARK  150  A    between atoms: _363  and  _364
REMARK  151  A    between atoms: _367  and  _369
REMARK  152  A    between atoms: _369  and  _370
REMARK  153  A    between atoms: _372  and  _374
REMARK  154  A    between atoms: _374  and  _375
REMARK  155  A    between atoms: _374  and  _377
REMARK  156  A    between atoms: _380  and  _382
REMARK  157  A    between atoms: _382  and  _383
REMARK  158  A    between atoms: _382  and  _385
REMARK  159  A    between atoms: _385  and  _386
REMARK  160  A    between atoms: _388  and  _390
REMARK  161  A    between atoms: _390  and  _391
REMARK  162  A    between atoms: _390  and  _393
REMARK  163  A    between atoms: _393  and  _394
REMARK  164  A    between atoms: _394  and  _395
REMARK  165  A    between atoms: _397  and  _399
REMARK  166  A    between atoms: _399  and  _400
REMARK  167  A    between atoms: _399  and  _402
REMARK  168  A    between atoms: _402  and  _403
REMARK  169  A    between atoms: _408  and  _409
REMARK  170  A    between atoms: _411  and  _413
REMARK  171  A    between atoms: _413  and  _414
REMARK  172  A    between atoms: _413  and  _416
REMARK  173  A    between atoms: _416  and  _417
REMARK  174  A    between atoms: _420  and  _422
REMARK  175  A    between atoms: _422  and  _423
REMARK  176  A    between atoms: _422  and  _425
REMARK  177  A    between atoms: _425  and  _426
REMARK  178  A    between atoms: _428  and  _430
REMARK  179  A    between atoms: _430  and  _431
REMARK  180  A    between atoms: _430  and  _433
REMARK  181  A    between atoms: _433  and  _434
REMARK  182  A    between atoms: _437  and  _439
REMARK  183  A    between atoms: _439  and  _440
REMARK  184  A    between atoms: _439  and  _442
REMARK  185  A    between atoms: _442  and  _443
REMARK  186  A    between atoms: _448  and  _449
REMARK  187  A    between atoms: _451  and  _453
REMARK  188  A    between atoms: _453  and  _454
REMARK  189  A    between atoms: _453  and  _456
REMARK  190  A    between atoms: _456  and  _457
REMARK  191  A    between atoms: _459  and  _461
REMARK  192  A    between atoms: _461  and  _462
REMARK  193  A    between atoms: _461  and  _464
REMARK  194  A    between atoms: _464  and  _465
REMARK  195  A    between atoms: _471  and  _473
REMARK  196  A    between atoms: _473  and  _474
REMARK  197  A    between atoms: _473  and  _476
REMARK  198  A    between atoms: _476  and  _477
REMARK  199  A    between atoms: _477  and  _478
REMARK  200  A    between atoms: _478  and  _479
REMARK  201  A    between atoms: _488  and  _490
REMARK  202  A    between atoms: _490  and  _491
REMARK  203  A    between atoms: _490  and  _493
REMARK  204  A    between atoms: _496  and  _498
REMARK  205  A    between atoms: _498  and  _499
REMARK  206  A    between atoms: _501  and  _503
REMARK  207  A    between atoms: _503  and  _504
REMARK  208  A    between atoms: _503  and  _506
REMARK  209  A    between atoms: _506  and  _507
REMARK  210  A    between atoms: _510  and  _512
REMARK  211  A    between atoms: _512  and  _513
REMARK  212  A    between atoms: _512  and  _515
REMARK  213  A    between atoms: _515  and  _516
REMARK  214  A    between atoms: _516  and  _517
REMARK  215  A    between atoms: _519  and  _521
REMARK  216  A    between atoms: _521  and  _522
REMARK  217  A    between atoms: _521  and  _524
REMARK  218  A    between atoms: _524  and  _525
REMARK  219  A    between atoms: _531  and  _533
REMARK  220  A    between atoms: _533  and  _534
REMARK  221  A    between atoms: _533  and  _536
REMARK  222  A    between atoms: _536  and  _537
REMARK  223  A    between atoms: _542  and  _544
REMARK  224  A    between atoms: _544  and  _545
REMARK  225  A    between atoms: _544  and  _547
REMARK  226  A    between atoms: _547  and  _548
REMARK  227  A    between atoms: _558  and  _560
REMARK  228  A    between atoms: _560  and  _561
REMARK  229  A    between atoms: _560  and  _563
REMARK  230  A    between atoms: _566  and  _568
REMARK  231  A    between atoms: _568  and  _569
REMARK  232  A    between atoms: _568  and  _571
REMARK  233  A    between atoms: _571  and  _572
REMARK  234  A    between atoms: _575  and  _577
REMARK  235  A    between atoms: _577  and  _578
REMARK  236  A    between atoms: _577  and  _580
REMARK  237  A    between atoms: _580  and  _581
REMARK  238  A    between atoms: _581  and  _582
REMARK  239  A    between atoms: _584  and  _586
REMARK  240  A    between atoms: _586  and  _587
REMARK  241  A    between atoms: _586  and  _589
REMARK  242  A    between atoms: _589  and  _590
REMARK  243  A    between atoms: _593  and  _595
REMARK  244  A    between atoms: _595  and  _596
REMARK  245  A    between atoms: _595  and  _598
REMARK  246  A    between atoms: _598  and  _599
REMARK  247  A    between atoms: _602  and  _604
REMARK  248  A    between atoms: _604  and  _605
REMARK  249  A    between atoms: _607  and  _609
REMARK  250  A    between atoms: _609  and  _610
REMARK  251  A    between atoms: _609  and  _612
REMARK  252  A    between atoms: _612  and  _613
REMARK  253  A    between atoms: _615  and  _617
REMARK  254  A    between atoms: _617  and  _618
REMARK  255  A    between atoms: _617  and  _620
REMARK  256  A    between atoms: _620  and  _621
REMARK  257  A    between atoms: _631  and  _633
REMARK  258  A    between atoms: _633  and  _634
REMARK  259  A    between atoms: _633  and  _636
REMARK  260  A    between atoms: _636  and  _637
REMARK  261  A    between atoms: _639  and  _641
REMARK  262  A    between atoms: _641  and  _642
REMARK  263  A    between atoms: _641  and  _644
REMARK  264  A    between atoms: _644  and  _645
REMARK  265  A    between atoms: _648  and  _650
REMARK  266  A    between atoms: _650  and  _651
REMARK  267  A    between atoms: _654  and  _656
REMARK  268  A    between atoms: _656  and  _657
REMARK  269  A    between atoms: _656  and  _659
REMARK  270  A    between atoms: _659  and  _660
REMARK  271  A    between atoms: _662  and  _664
REMARK  272  A    between atoms: _664  and  _665
REMARK  273  A    between atoms: _664  and  _667
REMARK  274  A    between atoms: _667  and  _668
REMARK  275  A    between atoms: _668  and  _669
REMARK  276  A    between atoms: _673  and  _674
REMARK  277  A    between atoms: _679  and  _681
REMARK  278  A    between atoms: _681  and  _682
REMARK  279  A    between atoms: _681  and  _684
REMARK  280  A    between atoms: _684  and  _685
REMARK  281  A    between atoms: _687  and  _689
REMARK  282  A    between atoms: _689  and  _690
REMARK  283  A    between atoms: _689  and  _692
REMARK  284  A    between atoms: _692  and  _693
REMARK  285  A    between atoms: _693  and  _694
REMARK  286  A    between atoms: _699  and  _701
REMARK  287  A    between atoms: _701  and  _702
REMARK  288  A    between atoms: _701  and  _704
REMARK  289  A    between atoms: _704  and  _705
REMARK  290  A    between atoms: _705  and  _706
REMARK  291  A    between atoms: _711  and  _713
REMARK  292  A    between atoms: _713  and  _714
REMARK  293  A    between atoms: _713  and  _716
REMARK  294  A    between atoms: _716  and  _717
REMARK  295  A    between atoms: _720  and  _722
REMARK  296  A    between atoms: _722  and  _723
REMARK  297  A    between atoms: _722  and  _725
REMARK  298  A    between atoms: _725  and  _726
REMARK  299  A    between atoms: _729  and  _731
REMARK  300  A    between atoms: _731  and  _732
REMARK  301  A    between atoms: _731  and  _734
REMARK  302  A    between atoms: _734  and  _735
REMARK  303  A    between atoms: _741  and  _743
REMARK  304  A    between atoms: _743  and  _744
REMARK  305  A    between atoms: _743  and  _746
REMARK  306  A    between atoms: _746  and  _747
REMARK  307  A    between atoms: _752  and  _753
REMARK  308  A    between atoms: _755  and  _757
REMARK  309  A    between atoms: _757  and  _758
REMARK  310  A    between atoms: _757  and  _760
REMARK  311  A    between atoms: _760  and  _761
REMARK  312  A    between atoms: _767  and  _769
REMARK  313  A    between atoms: _769  and  _770
REMARK  314  A    between atoms: _769  and  _772
REMARK  315  A    between atoms: _772  and  _773
REMARK  316  A    between atoms: _778  and  _780
REMARK  317  A    between atoms: _780  and  _781
REMARK  318  A    between atoms: _780  and  _783
REMARK  319  A    between atoms: _783  and  _784
REMARK  320  A    between atoms: _784  and  _785
REMARK                            x       y       z     vdW  Elec       q    Type
REMARK                         _______ _______ _______ _____ _____    ______ ____
ROOT
ATOM      1  CA  ARG A   2      19.873  56.287  28.246  0.00  0.00    +0.137 C 
ENDROOT
BRANCH   1   4
ATOM      2  C   ASP A   1      18.547  58.224  29.005  0.00  0.00    +0.239 C 
ATOM      3  O   ASP A   1      18.100  57.661  29.968  0.00  0.00    -0.274 OA
ATOM      4  N   ARG A   2      19.474  57.702  28.185  0.00  0.00    -0.298 N 
ATOM      5  H   ARG A   2      19.926  58.320  27.482  0.00  0.00    +0.150 HD
BRANCH   2   6
ATOM      6  CA  ASP A   1      18.075  59.674  28.712  0.00  0.00    +0.156 C 
BRANCH   6   7
ATOM      7  N   ASP A   1      18.549  60.111  27.388  0.00  0.00    -0.238 NA
ATOM      8  H   ASP A   1      18.070  59.748  26.539  0.00  0.00    +0.142 HD
ENDBRANCH   6   7
BRANCH   6   9
ATOM      9  CB  ASP A   1      16.532  59.739  28.698  0.00  0.00    +0.140 C 
BRANCH   9  10
ATOM     10  CG  ASP A   1      16.023  61.132  28.324  0.00  0.00    +0.367 C 
ATOM     11  OD2 ASP A   1      16.419  62.052  28.956  0.00  0.00    -0.246 OA
ATOM     12  OD1 ASP A   1      15.298  61.228  27.366  0.00  0.00    -0.246 OA
ENDBRANCH   9  10
ENDBRANCH   6   9
ENDBRANCH   2   6
ENDBRANCH   1   4
BRANCH   1  13
ATOM     13  C   ARG A   2      21.236  55.985  28.936  0.00  0.00    +0.227 C 
ATOM     14  O   ARG A   2      21.728  54.898  28.870  0.00  0.00    -0.286 OA
ENDBRANCH   1  13
BRANCH   1  15
ATOM     15  CB  ARG A   2      19.807  55.644  26.854  0.00  0.00    +0.031 C 
BRANCH  15  16
ATOM     16  CG  ARG A   2      18.384  55.526  26.285  0.00  0.00    +0.045 C 
BRANCH  16  17
ATOM     17  CD  ARG A   2      18.450  54.729  24.953  0.00  0.00    +0.174 C 
BRANCH  17  18
ATOM     18  NE  ARG A   2      17.097  54.433  24.440  0.00  0.00    -0.265 N 
ATOM     19  CZ  ARG A   2      16.362  53.428  24.847  0.00  0.00    +0.342 C 
ATOM     20  NH2 ARG A   2      16.799  52.623  25.774  0.00  0.00    -0.292 N 
ATOM     21 HH21 ARG A   2      17.737  52.776  26.196  0.00  0.00    +0.255 HD
ATOM     22 HH22 ARG A   2      16.210  51.827  26.092  0.00  0.00    +0.255 HD
ATOM     23  NH1 ARG A   2      15.179  53.218  24.315  0.00  0.00    -0.292 N 
ATOM     24 HH11 ARG A   2      14.597  52.419  24.640  0.00  0.00    +0.255 HD
ATOM     25 HH12 ARG A   2      14.825  53.850  23.569  0.00  0.00    +0.255 HD
ATOM     26  HE  ARG A   2      16.704  55.061  23.711  0.00  0.00    +0.259 HD
ENDBRANCH  17  18
ENDBRANCH  16  17
ENDBRANCH  15  16
ENDBRANCH   1  15
TORSDOF 10
REMARK  Name = ../refined-set-2016/3drf/3drf_pocket.pdb
REMARK  320 active torsions:
REMARK  status: ('A' for Active; 'I' for Inactive)
REMARK    1  A    between atoms: _1  and  _3
REMARK    2  A    between atoms: _3  and  _4
REMARK    3  A    between atoms: _3  and  _6
REMARK    4  A    between atoms: _6  and  _7
REMARK    5  A    between atoms: _12  and  _13
REMARK    6  A    between atoms: _15  and  _17
REMARK    7  A    between atoms: _17  and  _18
REMARK    8  A    between atoms: _17  and  _20
REMARK    9  A    between atoms: _20  and  _21
REMARK   10  A    between atoms: _21  and  _22
REMARK   11  A    between atoms: _27  and  _29
REMARK   12  A    between atoms: _29  and  _30
REMARK   13  A    between atoms: _29  and  _32
REMARK   14  A    between atoms: _32  and  _33
REMARK   15  A    between atoms: _35  and  _37
REMARK   16  A    between atoms: _37  and  _38
REMARK   17  A    between atoms: _37  and  _40
REMARK   18  A    between atoms: _40  and  _41
REMARK   19  A    between atoms: _44  and  _46
REMARK   20  A    between atoms: _46  and  _47
REMARK   21  A    between atoms: _46  and  _49
REMARK   22  A    between atoms: _49  and  _50
REMARK   23  A    between atoms: _52  and  _54
REMARK   24  A    between atoms: _54  and  _55
REMARK   25  A    between atoms: _54  and  _57
REMARK   26  A    between atoms: _57  and  _58
REMARK   27  A    between atoms: _60  and  _62
REMARK   28  A    between atoms: _62  and  _63
REMARK   29  A    between atoms: _65  and  _67
REMARK   30  A    between atoms: _67  and  _68
REMARK   31  A    between atoms: _67  and  _70
REMARK   32  A    between atoms: _70  and  _71
REMARK   33  A    between atoms: _73  and  _75
REMARK   34  A    between atoms: _75  and  _76
REMARK   35  A    between atoms: _75  and  _78
REMARK   36  A    between atoms: _78  and  _79
REMARK   37  A    between atoms: _84  and  _86
REMARK   38  A    between atoms: _86  and  _87
REMARK   39  A    between atoms: _86  and  _89
REMARK   40  A    between atoms: _89  and  _90
REMARK   41  A    between atoms: _93  and  _95
REMARK   42  A    between atoms: _95  and  _96
REMARK   43  A    between atoms: _99  and  _101
REMARK   44  A    between atoms: _101  and  _102
REMARK   45  A    between atoms: _101  and  _104
REMARK   46  A    between atoms: _104  and  _105
REMARK   47  A    between atoms: _108  and  _110
REMARK   48  A    between atoms: _110  and  _111
REMARK   49  A    between atoms: _110  and  _113
REMARK   50  A    between atoms: _113  and  _114
REMARK   51  A    between atoms: _120  and  _122
REMARK   52  A    between atoms: _122  and  _123
REMARK   53  A    between atoms: _126  and  _128
REMARK   54  A    between atoms: _128  and  _129
REMARK   55  A    between atoms: _128  and  _131
REMARK   56  A    between atoms: _131  and  _132
REMARK   57  A    between atoms: _135  and  _137
REMARK   58  A    between atoms: _137  and  _138
REMARK   59  A    between atoms: _140  and  _142
REMARK   60  A    between atoms: _142  and  _143
REMARK   61  A    between atoms: _142  and  _145
REMARK   62  A    between atoms: _145  and  _146
REMARK   63  A    between atoms: _146  and  _147
REMARK   64  A    between atoms: _152  and  _154
REMARK   65  A    between atoms: _154  and  _155
REMARK   66  A    between atoms: _157  and  _159
REMARK   67  A    between atoms: _159  and  _160
REMARK   68  A    between atoms: _159  and  _162
REMARK   69  A    between atoms: _162  and  _163
REMARK   70  A    between atoms: _166  and  _168
REMARK   71  A    between atoms: _168  and  _169
REMARK   72  A    between atoms: _168  and  _171
REMARK   73  A    between atoms: _171  and  _172
REMARK   74  A    between atoms: _178  and  _180
REMARK   75  A    between atoms: _180  and  _181
REMARK   76  A    between atoms: _180  and  _183
REMARK   77  A    between atoms: _183  and  _184
REMARK   78  A    between atoms: _187  and  _189
REMARK   79  A    between atoms: _189  and  _190
REMARK   80  A    between atoms: _189  and  _192
REMARK   81  A    between atoms: _192  and  _193
REMARK   82  A    between atoms: _199  and  _201
REMARK   83  A    between atoms: _201  and  _202
REMARK   84  A    between atoms: _201  and  _204
REMARK   85  A    between atoms: _204  and  _205
REMARK   86  A    between atoms: _211  and  _213
REMARK   87  A    between atoms: _213  and  _214
REMARK   88  A    between atoms: _213  and  _216
REMARK   89  A    between atoms: _216  and  _217
REMARK   90  A    between atoms: _220  and  _222
REMARK   91  A    between atoms: _222  and  _223
REMARK   92  A    between atoms: _222  and  _225
REMARK   93  A    between atoms: _225  and  _226
REMARK   94  A    between atoms: _229  and  _231
REMARK   95  A    between atoms: _231  and  _232
REMARK   96  A    between atoms: _231  and  _234
REMARK   97  A    between atoms: _234  and  _235
REMARK   98  A    between atoms: _235  and  _236
REMARK   99  A    between atoms: _236  and  _237
REMARK  100  A    between atoms: _246  and  _248
REMARK  101  A    between atoms: _248  and  _249
REMARK  102  A    between atoms: _248  and  _251
REMARK  103  A    between atoms: _251  and  _252
REMARK  104  A    between atoms: _255  and  _257
REMARK  105  A    between atoms: _257  and  _258
REMARK  106  A    between atoms: _257  and  _260
REMARK  107  A    between atoms: _260  and  _261
REMARK  108  A    between atoms: _263  and  _265
REMARK  109  A    between atoms: _265  and  _266
REMARK  110  A    between atoms: _265  and  _268
REMARK  111  A    between atoms: _268  and  _269
REMARK  112  A    between atoms: _269  and  _270
REMARK  113  A    between atoms: _275  and  _277
REMARK  114  A    between atoms: _277  and  _278
REMARK  115  A    between atoms: _277  and  _280
REMARK  116  A    between atoms: _280  and  _281
REMARK  117  A    between atoms: _283  and  _285
REMARK  118  A    between atoms: _285  and  _286
REMARK  119  A    between atoms: _288  and  _290
REMARK  120  A    between atoms: _290  and  _291
REMARK  121  A    between atoms: _290  and  _293
REMARK  122  A    between atoms: _293  and  _294
REMARK  123  A    between atoms: _299  and  _301
REMARK  124  A    between atoms: _301  and  _302
REMARK  125  A    between atoms: _304  and  _306
REMARK  126  A    between atoms: _306  and  _307
REMARK  127  A    between atoms: _306  and  _309
REMARK  128  A    between atoms: _309  and  _310
REMARK  129  A    between atoms: _315  and  _316
REMARK  130  A    between atoms: _318  and  _320
REMARK  131  A    between atoms: _320  and  _321
REMARK  132  A    between atoms: _320  and  _323
REMARK  133  A    between atoms: _323  and  _324
REMARK  134  A    between atoms: _330  and  _332
REMARK  135  A    between atoms: _332  and  _333
REMARK  136  A    between atoms: _332  and  _335
REMARK  137  A    between atoms: _335  and  _336
REMARK  138  A    between atoms: _339  and  _341
REMARK  139  A    between atoms: _341  and  _342
REMARK  140  A    between atoms: _341  and  _344
REMARK  141  A    between atoms: _344  and  _345
REMARK  142  A    between atoms: _345  and  _346
REMARK  143  A    between atoms: _349  and  _351
REMARK  144  A    between atoms: _351  and  _352
REMARK  145  A    between atoms: _351  and  _354
REMARK  146  A    between atoms: _354  and  _355
REMARK  147  A    between atoms: _358  and  _360
REMARK  148  A    between atoms: _360  and  _361
REMARK  149  A    between atoms: _360  and  _363
REMARK  150  A    between atoms: _363  and  _364
REMARK  151  A    between atoms: _367  and  _369
REMARK  152  A    between atoms: _369  and  _370
REMARK  153  A    between atoms: _372  and  _374
REMARK  154  A    between atoms: _374  and  _375
REMARK  155  A    between atoms: _374  and  _377
REMARK  156  A    between atoms: _380  and  _382
REMARK  157  A    between atoms: _382  and  _383
REMARK  158  A    between atoms: _382  and  _385
REMARK  159  A    between atoms: _385  and  _386
REMARK  160  A    between atoms: _388  and  _390
REMARK  161  A    between atoms: _390  and  _391
REMARK  162  A    between atoms: _390  and  _393
REMARK  163  A    between atoms: _393  and  _394
REMARK  164  A    between atoms: _394  and  _395
REMARK  165  A    between atoms: _397  and  _399
REMARK  166  A    between atoms: _399  and  _400
REMARK  167  A    between atoms: _399  and  _402
REMARK  168  A    between atoms: _402  and  _403
REMARK  169  A    between atoms: _408  and  _409
REMARK  170  A    between atoms: _411  and  _413
REMARK  171  A    between atoms: _413  and  _414
REMARK  172  A    between atoms: _413  and  _416
REMARK  173  A    between atoms: _416  and  _417
REMARK  174  A    between atoms: _420  and  _422
REMARK  175  A    between atoms: _422  and  _423
REMARK  176  A    between atoms: _422  and  _425
REMARK  177  A    between atoms: _425  and  _426
REMARK  178  A    between atoms: _428  and  _430
REMARK  179  A    between atoms: _430  and  _431
REMARK  180  A    between atoms: _430  and  _433
REMARK  181  A    between atoms: _433  and  _434
REMARK  182  A    between atoms: _437  and  _439
REMARK  183  A    between atoms: _439  and  _440
REMARK  184  A    between atoms: _439  and  _442
REMARK  185  A    between atoms: _442  and  _443
REMARK  186  A    between atoms: _448  and  _449
REMARK  187  A    between atoms: _451  and  _453
REMARK  188  A    between atoms: _453  and  _454
REMARK  189  A    between atoms: _453  and  _456
REMARK  190  A    between atoms: _456  and  _457
REMARK  191  A    between atoms: _459  and  _461
REMARK  192  A    between atoms: _461  and  _462
REMARK  193  A    between atoms: _461  and  _464
REMARK  194  A    between atoms: _464  and  _465
REMARK  195  A    between atoms: _471  and  _473
REMARK  196  A    between atoms: _473  and  _474
REMARK  197  A    between atoms: _473  and  _476
REMARK  198  A    between atoms: _476  and  _477
REMARK  199  A    between atoms: _477  and  _478
REMARK  200  A    between atoms: _478  and  _479
REMARK  201  A    between atoms: _488  and  _490
REMARK  202  A    between atoms: _490  and  _491
REMARK  203  A    between atoms: _490  and  _493
REMARK  204  A    between atoms: _496  and  _498
REMARK  205  A    between atoms: _498  and  _499
REMARK  206  A    between atoms: _501  and  _503
REMARK  207  A    between atoms: _503  and  _504
REMARK  208  A    between atoms: _503  and  _506
REMARK  209  A    between atoms: _506  and  _507
REMARK  210  A    between atoms: _510  and  _512
REMARK  211  A    between atoms: _512  and  _513
REMARK  212  A    between atoms: _512  and  _515
REMARK  213  A    between atoms: _515  and  _516
REMARK  214  A    between atoms: _516  and  _517
REMARK  215  A    between atoms: _519  and  _521
REMARK  216  A    between atoms: _521  and  _522
REMARK  217  A    between atoms: _521  and  _524
REMARK  218  A    between atoms: _524  and  _525
REMARK  219  A    between atoms: _531  and  _533
REMARK  220  A    between atoms: _533  and  _534
REMARK  221  A    between atoms: _533  and  _536
REMARK  222  A    between atoms: _536  and  _537
REMARK  223  A    between atoms: _542  and  _544
REMARK  224  A    between atoms: _544  and  _545
REMARK  225  A    between atoms: _544  and  _547
REMARK  226  A    between atoms: _547  and  _548
REMARK  227  A    between atoms: _558  and  _560
REMARK  228  A    between atoms: _560  and  _561
REMARK  229  A    between atoms: _560  and  _563
REMARK  230  A    between atoms: _566  and  _568
REMARK  231  A    between atoms: _568  and  _569
REMARK  232  A    between atoms: _568  and  _571
REMARK  233  A    between atoms: _571  and  _572
REMARK  234  A    between atoms: _575  and  _577
REMARK  235  A    between atoms: _577  and  _578
REMARK  236  A    between atoms: _577  and  _580
REMARK  237  A    between atoms: _580  and  _581
REMARK  238  A    between atoms: _581  and  _582
REMARK  239  A    between atoms: _584  and  _586
REMARK  240  A    between atoms: _586  and  _587
REMARK  241  A    between atoms: _586  and  _589
REMARK  242  A    between atoms: _589  and  _590
REMARK  243  A    between atoms: _593  and  _595
REMARK  244  A    between atoms: _595  and  _596
REMARK  245  A    between atoms: _595  and  _598
REMARK  246  A    between atoms: _598  and  _599
REMARK  247  A    between atoms: _602  and  _604
REMARK  248  A    between atoms: _604  and  _605
REMARK  249  A    between atoms: _607  and  _609
REMARK  250  A    between atoms: _609  and  _610
REMARK  251  A    between atoms: _609  and  _612
REMARK  252  A    between atoms: _612  and  _613
REMARK  253  A    between atoms: _615  and  _617
REMARK  254  A    between atoms: _617  and  _618
REMARK  255  A    between atoms: _617  and  _620
REMARK  256  A    between atoms: _620  and  _621
REMARK  257  A    between atoms: _631  and  _633
REMARK  258  A    between atoms: _633  and  _634
REMARK  259  A    between atoms: _633  and  _636
REMARK  260  A    between atoms: _636  and  _637
REMARK  261  A    between atoms: _639  and  _641
REMARK  262  A    between atoms: _641  and  _642
REMARK  263  A    between atoms: _641  and  _644
REMARK  264  A    between atoms: _644  and  _645
REMARK  265  A    between atoms: _648  and  _650
REMARK  266  A    between atoms: _650  and  _651
REMARK  267  A    between atoms: _654  and  _656
REMARK  268  A    between atoms: _656  and  _657
REMARK  269  A    between atoms: _656  and  _659
REMARK  270  A    between atoms: _659  and  _660
REMARK  271  A    between atoms: _662  and  _664
REMARK  272  A    between atoms: _664  and  _665
REMARK  273  A    between atoms: _664  and  _667
REMARK  274  A    between atoms: _667  and  _668
REMARK  275  A    between atoms: _668  and  _669
REMARK  276  A    between atoms: _673  and  _674
REMARK  277  A    between atoms: _679  and  _681
REMARK  278  A    between atoms: _681  and  _682
REMARK  279  A    between atoms: _681  and  _684
REMARK  280  A    between atoms: _684  and  _685
REMARK  281  A    between atoms: _687  and  _689
REMARK  282  A    between atoms: _689  and  _690
REMARK  283  A    between atoms: _689  and  _692
REMARK  284  A    between atoms: _692  and  _693
REMARK  285  A    between atoms: _693  and  _694
REMARK  286  A    between atoms: _699  and  _701
REMARK  287  A    between atoms: _701  and  _702
REMARK  288  A    between atoms: _701  and  _704
REMARK  289  A    between atoms: _704  and  _705
REMARK  290  A    between atoms: _705  and  _706
REMARK  291  A    between atoms: _711  and  _713
REMARK  292  A    between atoms: _713  and  _714
REMARK  293  A    between atoms: _713  and  _716
REMARK  294  A    between atoms: _716  and  _717
REMARK  295  A    between atoms: _720  and  _722
REMARK  296  A    between atoms: _722  and  _723
REMARK  297  A    between atoms: _722  and  _725
REMARK  298  A    between atoms: _725  and  _726
REMARK  299  A    between atoms: _729  and  _731
REMARK  300  A    between atoms: _731  and  _732
REMARK  301  A    between atoms: _731  and  _734
REMARK  302  A    between atoms: _734  and  _735
REMARK  303  A    between atoms: _741  and  _743
REMARK  304  A    between atoms: _743  and  _744
REMARK  305  A    between atoms: _743  and  _746
REMARK  306  A    between atoms: _746  and  _747
REMARK  307  A    between atoms: _752  and  _753
REMARK  308  A    between atoms: _755  and  _757
REMARK  309  A    between atoms: _757  and  _758
REMARK  310  A    between atoms: _757  and  _760
REMARK  311  A    between atoms: _760  and  _761
REMARK  312  A    between atoms: _767  and  _769
REMARK  313  A    between atoms: _769  and  _770
REMARK  314  A    between atoms: _769  and  _772
REMARK  315  A    between atoms: _772  and  _773
REMARK  316  A    between atoms: _778  and  _780
REMARK  317  A    between atoms: _780  and  _781
REMARK  318  A    between atoms: _780  and  _783
REMARK  319  A    between atoms: _783  and  _784
REMARK  320  A    between atoms: _784  and  _785
REMARK                            x       y       z     vdW  Elec       q    Type
REMARK                         _______ _______ _______ _____ _____    ______ ____
ROOT
ATOM      1  CA  THR A   1      23.141  53.637  32.879  0.00  0.00    +0.160 C 
ENDROOT
BRANCH   1   2
ATOM      2  N   THR A   1      23.432  54.760  31.992  0.00  0.00    -0.237 NA
ATOM      3  H   THR A   1      24.406  54.902  31.656  0.00  0.00    +0.142 HD
ENDBRANCH   1   2
BRANCH   1   4
ATOM      4  C   THR A   1      24.484  53.145  33.426  0.00  0.00    +0.227 C 
ATOM      5  O   THR A   1      25.477  53.342  32.837  0.00  0.00    -0.287 OA
ENDBRANCH   1   4
BRANCH   1   6
ATOM      6  CB  THR A   1      22.415  52.510  32.101  0.00  0.00    +0.134 C 
ATOM      7  CG2 THR A   1      23.058  52.231  30.670  0.00  0.00    +0.034 C 
BRANCH   6   8
ATOM      8  OG1 THR A   1      22.484  51.339  32.930  0.00  0.00    -0.383 OA
ATOM      9  HG1 THR A   1      22.031  50.586  32.474  0.00  0.00    +0.210 HD
ENDBRANCH   6   8
ENDBRANCH   1   6
TORSDOF 4
REMARK  Name = ../refined-set-2016/3drf/3drf_pocket.pdb
REMARK  320 active torsions:
REMARK  status: ('A' for Active; 'I' for Inactive)
REMARK    1  A    between atoms: _1  and  _3
REMARK    2  A    between atoms: _3  and  _4
REMARK    3  A    between atoms: _3  and  _6
REMARK    4  A    between atoms: _6  and  _7
REMARK    5  A    between atoms: _12  and  _13
REMARK    6  A    between atoms: _15  and  _17
REMARK    7  A    between atoms: _17  and  _18
REMARK    8  A    between atoms: _17  and  _20
REMARK    9  A    between atoms: _20  and  _21
REMARK   10  A    between atoms: _21  and  _22
REMARK   11  A    between atoms: _27  and  _29
REMARK   12  A    between atoms: _29  and  _30
REMARK   13  A    between atoms: _29  and  _32
REMARK   14  A    between atoms: _32  and  _33
REMARK   15  A    between atoms: _35  and  _37
REMARK   16  A    between atoms: _37  and  _38
REMARK   17  A    between atoms: _37  and  _40
REMARK   18  A    between atoms: _40  and  _41
REMARK   19  A    between atoms: _44  and  _46
REMARK   20  A    between atoms: _46  and  _47
REMARK   21  A    between atoms: _46  and  _49
REMARK   22  A    between atoms: _49  and  _50
REMARK   23  A    between atoms: _52  and  _54
REMARK   24  A    between atoms: _54  and  _55
REMARK   25  A    between atoms: _54  and  _57
REMARK   26  A    between atoms: _57  and  _58
REMARK   27  A    between atoms: _60  and  _62
REMARK   28  A    between atoms: _62  and  _63
REMARK   29  A    between atoms: _65  and  _67
REMARK   30  A    between atoms: _67  and  _68
REMARK   31  A    between atoms: _67  and  _70
REMARK   32  A    between atoms: _70  and  _71
REMARK   33  A    between atoms: _73  and  _75
REMARK   34  A    between atoms: _75  and  _76
REMARK   35  A    between atoms: _75  and  _78
REMARK   36  A    between atoms: _78  and  _79
REMARK   37  A    between atoms: _84  and  _86
REMARK   38  A    between atoms: _86  and  _87
REMARK   39  A    between atoms: _86  and  _89
REMARK   40  A    between atoms: _89  and  _90
REMARK   41  A    between atoms: _93  and  _95
REMARK   42  A    between atoms: _95  and  _96
REMARK   43  A    between atoms: _99  and  _101
REMARK   44  A    between atoms: _101  and  _102
REMARK   45  A    between atoms: _101  and  _104
REMARK   46  A    between atoms: _104  and  _105
REMARK   47  A    between atoms: _108  and  _110
REMARK   48  A    between atoms: _110  and  _111
REMARK   49  A    between atoms: _110  and  _113
REMARK   50  A    between atoms: _113  and  _114
REMARK   51  A    between atoms: _120  and  _122
REMARK   52  A    between atoms: _122  and  _123
REMARK   53  A    between atoms: _126  and  _128
REMARK   54  A    between atoms: _128  and  _129
REMARK   55  A    between atoms: _128  and  _131
REMARK   56  A    between atoms: _131  and  _132
REMARK   57  A    between atoms: _135  and  _137
REMARK   58  A    between atoms: _137  and  _138
REMARK   59  A    between atoms: _140  and  _142
REMARK   60  A    between atoms: _142  and  _143
REMARK   61  A    between atoms: _142  and  _145
REMARK   62  A    between atoms: _145  and  _146
REMARK   63  A    between atoms: _146  and  _147
REMARK   64  A    between atoms: _152  and  _154
REMARK   65  A    between atoms: _154  and  _155
REMARK   66  A    between atoms: _157  and  _159
REMARK   67  A    between atoms: _159  and  _160
REMARK   68  A    between atoms: _159  and  _162
REMARK   69  A    between atoms: _162  and  _163
REMARK   70  A    between atoms: _166  and  _168
REMARK   71  A    between atoms: _168  and  _169
REMARK   72  A    between atoms: _168  and  _171
REMARK   73  A    between atoms: _171  and  _172
REMARK   74  A    between atoms: _178  and  _180
REMARK   75  A    between atoms: _180  and  _181
REMARK   76  A    between atoms: _180  and  _183
REMARK   77  A    between atoms: _183  and  _184
REMARK   78  A    between atoms: _187  and  _189
REMARK   79  A    between atoms: _189  and  _190
REMARK   80  A    between atoms: _189  and  _192
REMARK   81  A    between atoms: _192  and  _193
REMARK   82  A    between atoms: _199  and  _201
REMARK   83  A    between atoms: _201  and  _202
REMARK   84  A    between atoms: _201  and  _204
REMARK   85  A    between atoms: _204  and  _205
REMARK   86  A    between atoms: _211  and  _213
REMARK   87  A    between atoms: _213  and  _214
REMARK   88  A    between atoms: _213  and  _216
REMARK   89  A    between atoms: _216  and  _217
REMARK   90  A    between atoms: _220  and  _222
REMARK   91  A    between atoms: _222  and  _223
REMARK   92  A    between atoms: _222  and  _225
REMARK   93  A    between atoms: _225  and  _226
REMARK   94  A    between atoms: _229  and  _231
REMARK   95  A    between atoms: _231  and  _232
REMARK   96  A    between atoms: _231  and  _234
REMARK   97  A    between atoms: _234  and  _235
REMARK   98  A    between atoms: _235  and  _236
REMARK   99  A    between atoms: _236  and  _237
REMARK  100  A    between atoms: _246  and  _248
REMARK  101  A    between atoms: _248  and  _249
REMARK  102  A    between atoms: _248  and  _251
REMARK  103  A    between atoms: _251  and  _252
REMARK  104  A    between atoms: _255  and  _257
REMARK  105  A    between atoms: _257  and  _258
REMARK  106  A    between atoms: _257  and  _260
REMARK  107  A    between atoms: _260  and  _261
REMARK  108  A    between atoms: _263  and  _265
REMARK  109  A    between atoms: _265  and  _266
REMARK  110  A    between atoms: _265  and  _268
REMARK  111  A    between atoms: _268  and  _269
REMARK  112  A    between atoms: _269  and  _270
REMARK  113  A    between atoms: _275  and  _277
REMARK  114  A    between atoms: _277  and  _278
REMARK  115  A    between atoms: _277  and  _280
REMARK  116  A    between atoms: _280  and  _281
REMARK  117  A    between atoms: _283  and  _285
REMARK  118  A    between atoms: _285  and  _286
REMARK  119  A    between atoms: _288  and  _290
REMARK  120  A    between atoms: _290  and  _291
REMARK  121  A    between atoms: _290  and  _293
REMARK  122  A    between atoms: _293  and  _294
REMARK  123  A    between atoms: _299  and  _301
REMARK  124  A    between atoms: _301  and  _302
REMARK  125  A    between atoms: _304  and  _306
REMARK  126  A    between atoms: _306  and  _307
REMARK  127  A    between atoms: _306  and  _309
REMARK  128  A    between atoms: _309  and  _310
REMARK  129  A    between atoms: _315  and  _316
REMARK  130  A    between atoms: _318  and  _320
REMARK  131  A    between atoms: _320  and  _321
REMARK  132  A    between atoms: _320  and  _323
REMARK  133  A    between atoms: _323  and  _324
REMARK  134  A    between atoms: _330  and  _332
REMARK  135  A    between atoms: _332  and  _333
REMARK  136  A    between atoms: _332  and  _335
REMARK  137  A    between atoms: _335  and  _336
REMARK  138  A    between atoms: _339  and  _341
REMARK  139  A    between atoms: _341  and  _342
REMARK  140  A    between atoms: _341  and  _344
REMARK  141  A    between atoms: _344  and  _345
REMARK  142  A    between atoms: _345  and  _346
REMARK  143  A    between atoms: _349  and  _351
REMARK  144  A    between atoms: _351  and  _352
REMARK  145  A    between atoms: _351  and  _354
REMARK  146  A    between atoms: _354  and  _355
REMARK  147  A    between atoms: _358  and  _360
REMARK  148  A    between atoms: _360  and  _361
REMARK  149  A    between atoms: _360  and  _363
REMARK  150  A    between atoms: _363  and  _364
REMARK  151  A    between atoms: _367  and  _369
REMARK  152  A    between atoms: _369  and  _370
REMARK  153  A    between atoms: _372  and  _374
REMARK  154  A    between atoms: _374  and  _375
REMARK  155  A    between atoms: _374  and  _377
REMARK  156  A    between atoms: _380  and  _382
REMARK  157  A    between atoms: _382  and  _383
REMARK  158  A    between atoms: _382  and  _385
REMARK  159  A    between atoms: _385  and  _386
REMARK  160  A    between atoms: _388  and  _390
REMARK  161  A    between atoms: _390  and  _391
REMARK  162  A    between atoms: _390  and  _393
REMARK  163  A    between atoms: _393  and  _394
REMARK  164  A    between atoms: _394  and  _395
REMARK  165  A    between atoms: _397  and  _399
REMARK  166  A    between atoms: _399  and  _400
REMARK  167  A    between atoms: _399  and  _402
REMARK  168  A    between atoms: _402  and  _403
REMARK  169  A    between atoms: _408  and  _409
REMARK  170  A    between atoms: _411  and  _413
REMARK  171  A    between atoms: _413  and  _414
REMARK  172  A    between atoms: _413  and  _416
REMARK  173  A    between atoms: _416  and  _417
REMARK  174  A    between atoms: _420  and  _422
REMARK  175  A    between atoms: _422  and  _423
REMARK  176  A    between atoms: _422  and  _425
REMARK  177  A    between atoms: _425  and  _426
REMARK  178  A    between atoms: _428  and  _430
REMARK  179  A    between atoms: _430  and  _431
REMARK  180  A    between atoms: _430  and  _433
REMARK  181  A    between atoms: _433  and  _434
REMARK  182  A    between atoms: _437  and  _439
REMARK  183  A    between atoms: _439  and  _440
REMARK  184  A    between atoms: _439  and  _442
REMARK  185  A    between atoms: _442  and  _443
REMARK  186  A    between atoms: _448  and  _449
REMARK  187  A    between atoms: _451  and  _453
REMARK  188  A    between atoms: _453  and  _454
REMARK  189  A    between atoms: _453  and  _456
REMARK  190  A    between atoms: _456  and  _457
REMARK  191  A    between atoms: _459  and  _461
REMARK  192  A    between atoms: _461  and  _462
REMARK  193  A    between atoms: _461  and  _464
REMARK  194  A    between atoms: _464  and  _465
REMARK  195  A    between atoms: _471  and  _473
REMARK  196  A    between atoms: _473  and  _474
REMARK  197  A    between atoms: _473  and  _476
REMARK  198  A    between atoms: _476  and  _477
REMARK  199  A    between atoms: _477  and  _478
REMARK  200  A    between atoms: _478  and  _479
REMARK  201  A    between atoms: _488  and  _490
REMARK  202  A    between atoms: _490  and  _491
REMARK  203  A    between atoms: _490  and  _493
REMARK  204  A    between atoms: _496  and  _498
REMARK  205  A    between atoms: _498  and  _499
REMARK  206  A    between atoms: _501  and  _503
REMARK  207  A    between atoms: _503  and  _504
REMARK  208  A    between atoms: _503  and  _506
REMARK  209  A    between atoms: _506  and  _507
REMARK  210  A    between atoms: _510  and  _512
REMARK  211  A    between atoms: _512  and  _513
REMARK  212  A    between atoms: _512  and  _515
REMARK  213  A    between atoms: _515  and  _516
REMARK  214  A    between atoms: _516  and  _517
REMARK  215  A    between atoms: _519  and  _521
REMARK  216  A    between atoms: _521  and  _522
REMARK  217  A    between atoms: _521  and  _524
REMARK  218  A    between atoms: _524  and  _525
REMARK  219  A    between atoms: _531  and  _533
REMARK  220  A    between atoms: _533  and  _534
REMARK  221  A    between atoms: _533  and  _536
REMARK  222  A    between atoms: _536  and  _537
REMARK  223  A    between atoms: _542  and  _544
REMARK  224  A    between atoms: _544  and  _545
REMARK  225  A    between atoms: _544  and  _547
REMARK  226  A    between atoms: _547  and  _548
REMARK  227  A    between atoms: _558  and  _560
REMARK  228  A    between atoms: _560  and  _561
REMARK  229  A    between atoms: _560  and  _563
REMARK  230  A    between atoms: _566  and  _568
REMARK  231  A    between atoms: _568  and  _569
REMARK  232  A    between atoms: _568  and  _571
REMARK  233  A    between atoms: _571  and  _572
REMARK  234  A    between atoms: _575  and  _577
REMARK  235  A    between atoms: _577  and  _578
REMARK  236  A    between atoms: _577  and  _580
REMARK  237  A    between atoms: _580  and  _581
REMARK  238  A    between atoms: _581  and  _582
REMARK  239  A    between atoms: _584  and  _586
REMARK  240  A    between atoms: _586  and  _587
REMARK  241  A    between atoms: _586  and  _589
REMARK  242  A    between atoms: _589  and  _590
REMARK  243  A    between atoms: _593  and  _595
REMARK  244  A    between atoms: _595  and  _596
REMARK  245  A    between atoms: _595  and  _598
REMARK  246  A    between atoms: _598  and  _599
REMARK  247  A    between atoms: _602  and  _604
REMARK  248  A    between atoms: _604  and  _605
REMARK  249  A    between atoms: _607  and  _609
REMARK  250  A    between atoms: _609  and  _610
REMARK  251  A    between atoms: _609  and  _612
REMARK  252  A    between atoms: _612  and  _613
REMARK  253  A    between atoms: _615  and  _617
REMARK  254  A    between atoms: _617  and  _618
REMARK  255  A    between atoms: _617  and  _620
REMARK  256  A    between atoms: _620  and  _621
REMARK  257  A    between atoms: _631  and  _633
REMARK  258  A    between atoms: _633  and  _634
REMARK  259  A    between atoms: _633  and  _636
REMARK  260  A    between atoms: _636  and  _637
REMARK  261  A    between atoms: _639  and  _641
REMARK  262  A    between atoms: _641  and  _642
REMARK  263  A    between atoms: _641  and  _644
REMARK  264  A    between atoms: _644  and  _645
REMARK  265  A    between atoms: _648  and  _650
REMARK  266  A    between atoms: _650  and  _651
REMARK  267  A    between atoms: _654  and  _656
REMARK  268  A    between atoms: _656  and  _657
REMARK  269  A    between atoms: _656  and  _659
REMARK  270  A    between atoms: _659  and  _660
REMARK  271  A    between atoms: _662  and  _664
REMARK  272  A    between atoms: _664  and  _665
REMARK  273  A    between atoms: _664  and  _667
REMARK  274  A    between atoms: _667  and  _668
REMARK  275  A    between atoms: _668  and  _669
REMARK  276  A    between atoms: _673  and  _674
REMARK  277  A    between atoms: _679  and  _681
REMARK  278  A    between atoms: _681  and  _682
REMARK  279  A    between atoms: _681  and  _684
REMARK  280  A    between atoms: _684  and  _685
REMARK  281  A    between atoms: _687  and  _689
REMARK  282  A    between atoms: _689  and  _690
REMARK  283  A    between atoms: _689  and  _692
REMARK  284  A    between atoms: _692  and  _693
REMARK  285  A    between atoms: _693  and  _694
REMARK  286  A    between atoms: _699  and  _701
REMARK  287  A    between atoms: _701  and  _702
REMARK  288  A    between atoms: _701  and  _704
REMARK  289  A    between atoms: _704  and  _705
REMARK  290  A    between atoms: _705  and  _706
REMARK  291  A    between atoms: _711  and  _713
REMARK  292  A    between atoms: _713  and  _714
REMARK  293  A    between atoms: _713  and  _716
REMARK  294  A    between atoms: _716  and  _717
REMARK  295  A    between atoms: _720  and  _722
REMARK  296  A    between atoms: _722  and  _723
REMARK  297  A    between atoms: _722  and  _725
REMARK  298  A    between atoms: _725  and  _726
REMARK  299  A    between atoms: _729  and  _731
REMARK  300  A    between atoms: _731  and  _732
REMARK  301  A    between atoms: _731  and  _734
REMARK  302  A    between atoms: _734  and  _735
REMARK  303  A    between atoms: _741  and  _743
REMARK  304  A    between atoms: _743  and  _744
REMARK  305  A    between atoms: _743  and  _746
REMARK  306  A    between atoms: _746  and  _747
REMARK  307  A    between atoms: _752  and  _753
REMARK  308  A    between atoms: _755  and  _757
REMARK  309  A    between atoms: _757  and  _758
REMARK  310  A    between atoms: _757  and  _760
REMARK  311  A    between atoms: _760  and  _761
REMARK  312  A    between atoms: _767  and  _769
REMARK  313  A    between atoms: _769  and  _770
REMARK  314  A    between atoms: _769  and  _772
REMARK  315  A    between atoms: _772  and  _773
REMARK  316  A    between atoms: _778  and  _780
REMARK  317  A    between atoms: _780  and  _781
REMARK  318  A    between atoms: _780  and  _783
REMARK  319  A    between atoms: _783  and  _784
REMARK  320  A    between atoms: _784  and  _785
REMARK                            x       y       z     vdW  Elec       q    Type
REMARK                         _______ _______ _______ _____ _____    ______ ____
ROOT
ATOM      1  CA  SER A   1      26.077  49.202  32.453  0.00  0.00    +0.163 C 
ENDROOT
BRANCH   1   2
ATOM      2  N   SER A   1      25.497  50.249  33.350  0.00  0.00    -0.237 NA
ATOM      3  H   SER A   1      24.499  50.529  33.267  0.00  0.00    +0.142 HD
ENDBRANCH   1   2
BRANCH   1   4
ATOM      4  CB  SER A   1      27.227  49.783  31.619  0.00  0.00    +0.227 C 
ATOM      5  OG  SER A   1      28.198  49.124  31.371  0.00  0.00    -0.287 OA
ENDBRANCH   1   4
BRANCH   1   6
ATOM      6  C   SER A   1      25.017  48.687  31.486  0.00  0.00    +0.162 C 
BRANCH   6   7
ATOM      7  O   SER A   1      23.868  48.135  32.175  0.00  0.00    -0.380 OA
ATOM      8  H   SER A   1      23.209  47.814  31.510  0.00  0.00    +0.211 HD
ENDBRANCH   6   7
ENDBRANCH   1   6
TORSDOF 4
REMARK  Name = ../refined-set-2016/3drf/3drf_pocket.pdb
REMARK  320 active torsions:
REMARK  status: ('A' for Active; 'I' for Inactive)
REMARK    1  A    between atoms: _1  and  _3
REMARK    2  A    between atoms: _3  and  _4
REMARK    3  A    between atoms: _3  and  _6
REMARK    4  A    between atoms: _6  and  _7
REMARK    5  A    between atoms: _12  and  _13
REMARK    6  A    between atoms: _15  and  _17
REMARK    7  A    between atoms: _17  and  _18
REMARK    8  A    between atoms: _17  and  _20
REMARK    9  A    between atoms: _20  and  _21
REMARK   10  A    between atoms: _21  and  _22
REMARK   11  A    between atoms: _27  and  _29
REMARK   12  A    between atoms: _29  and  _30
REMARK   13  A    between atoms: _29  and  _32
REMARK   14  A    between atoms: _32  and  _33
REMARK   15  A    between atoms: _35  and  _37
REMARK   16  A    between atoms: _37  and  _38
REMARK   17  A    between atoms: _37  and  _40
REMARK   18  A    between atoms: _40  and  _41
REMARK   19  A    between atoms: _44  and  _46
REMARK   20  A    between atoms: _46  and  _47
REMARK   21  A    between atoms: _46  and  _49
REMARK   22  A    between atoms: _49  and  _50
REMARK   23  A    between atoms: _52  and  _54
REMARK   24  A    between atoms: _54  and  _55
REMARK   25  A    between atoms: _54  and  _57
REMARK   26  A    between atoms: _57  and  _58
REMARK   27  A    between atoms: _60  and  _62
REMARK   28  A    between atoms: _62  and  _63
REMARK   29  A    between atoms: _65  and  _67
REMARK   30  A    between atoms: _67  and  _68
REMARK   31  A    between atoms: _67  and  _70
REMARK   32  A    between atoms: _70  and  _71
REMARK   33  A    between atoms: _73  and  _75
REMARK   34  A    between atoms: _75  and  _76
REMARK   35  A    between atoms: _75  and  _78
REMARK   36  A    between atoms: _78  and  _79
REMARK   37  A    between atoms: _84  and  _86
REMARK   38  A    between atoms: _86  and  _87
REMARK   39  A    between atoms: _86  and  _89
REMARK   40  A    between atoms: _89  and  _90
REMARK   41  A    between atoms: _93  and  _95
REMARK   42  A    between atoms: _95  and  _96
REMARK   43  A    between atoms: _99  and  _101
REMARK   44  A    between atoms: _101  and  _102
REMARK   45  A    between atoms: _101  and  _104
REMARK   46  A    between atoms: _104  and  _105
REMARK   47  A    between atoms: _108  and  _110
REMARK   48  A    between atoms: _110  and  _111
REMARK   49  A    between atoms: _110  and  _113
REMARK   50  A    between atoms: _113  and  _114
REMARK   51  A    between atoms: _120  and  _122
REMARK   52  A    between atoms: _122  and  _123
REMARK   53  A    between atoms: _126  and  _128
REMARK   54  A    between atoms: _128  and  _129
REMARK   55  A    between atoms: _128  and  _131
REMARK   56  A    between atoms: _131  and  _132
REMARK   57  A    between atoms: _135  and  _137
REMARK   58  A    between atoms: _137  and  _138
REMARK   59  A    between atoms: _140  and  _142
REMARK   60  A    between atoms: _142  and  _143
REMARK   61  A    between atoms: _142  and  _145
REMARK   62  A    between atoms: _145  and  _146
REMARK   63  A    between atoms: _146  and  _147
REMARK   64  A    between atoms: _152  and  _154
REMARK   65  A    between atoms: _154  and  _155
REMARK   66  A    between atoms: _157  and  _159
REMARK   67  A    between atoms: _159  and  _160
REMARK   68  A    between atoms: _159  and  _162
REMARK   69  A    between atoms: _162  and  _163
REMARK   70  A    between atoms: _166  and  _168
REMARK   71  A    between atoms: _168  and  _169
REMARK   72  A    between atoms: _168  and  _171
REMARK   73  A    between atoms: _171  and  _172
REMARK   74  A    between atoms: _178  and  _180
REMARK   75  A    between atoms: _180  and  _181
REMARK   76  A    between atoms: _180  and  _183
REMARK   77  A    between atoms: _183  and  _184
REMARK   78  A    between atoms: _187  and  _189
REMARK   79  A    between atoms: _189  and  _190
REMARK   80  A    between atoms: _189  and  _192
REMARK   81  A    between atoms: _192  and  _193
REMARK   82  A    between atoms: _199  and  _201
REMARK   83  A    between atoms: _201  and  _202
REMARK   84  A    between atoms: _201  and  _204
REMARK   85  A    between atoms: _204  and  _205
REMARK   86  A    between atoms: _211  and  _213
REMARK   87  A    between atoms: _213  and  _214
REMARK   88  A    between atoms: _213  and  _216
REMARK   89  A    between atoms: _216  and  _217
REMARK   90  A    between atoms: _220  and  _222
REMARK   91  A    between atoms: _222  and  _223
REMARK   92  A    between atoms: _222  and  _225
REMARK   93  A    between atoms: _225  and  _226
REMARK   94  A    between atoms: _229  and  _231
REMARK   95  A    between atoms: _231  and  _232
REMARK   96  A    between atoms: _231  and  _234
REMARK   97  A    between atoms: _234  and  _235
REMARK   98  A    between atoms: _235  and  _236
REMARK   99  A    between atoms: _236  and  _237
REMARK  100  A    between atoms: _246  and  _248
REMARK  101  A    between atoms: _248  and  _249
REMARK  102  A    between atoms: _248  and  _251
REMARK  103  A    between atoms: _251  and  _252
REMARK  104  A    between atoms: _255  and  _257
REMARK  105  A    between atoms: _257  and  _258
REMARK  106  A    between atoms: _257  and  _260
REMARK  107  A    between atoms: _260  and  _261
REMARK  108  A    between atoms: _263  and  _265
REMARK  109  A    between atoms: _265  and  _266
REMARK  110  A    between atoms: _265  and  _268
REMARK  111  A    between atoms: _268  and  _269
REMARK  112  A    between atoms: _269  and  _270
REMARK  113  A    between atoms: _275  and  _277
REMARK  114  A    between atoms: _277  and  _278
REMARK  115  A    between atoms: _277  and  _280
REMARK  116  A    between atoms: _280  and  _281
REMARK  117  A    between atoms: _283  and  _285
REMARK  118  A    between atoms: _285  and  _286
REMARK  119  A    between atoms: _288  and  _290
REMARK  120  A    between atoms: _290  and  _291
REMARK  121  A    between atoms: _290  and  _293
REMARK  122  A    between atoms: _293  and  _294
REMARK  123  A    between atoms: _299  and  _301
REMARK  124  A    between atoms: _301  and  _302
REMARK  125  A    between atoms: _304  and  _306
REMARK  126  A    between atoms: _306  and  _307
REMARK  127  A    between atoms: _306  and  _309
REMARK  128  A    between atoms: _309  and  _310
REMARK  129  A    between atoms: _315  and  _316
REMARK  130  A    between atoms: _318  and  _320
REMARK  131  A    between atoms: _320  and  _321
REMARK  132  A    between atoms: _320  and  _323
REMARK  133  A    between atoms: _323  and  _324
REMARK  134  A    between atoms: _330  and  _332
REMARK  135  A    between atoms: _332  and  _333
REMARK  136  A    between atoms: _332  and  _335
REMARK  137  A    between atoms: _335  and  _336
REMARK  138  A    between atoms: _339  and  _341
REMARK  139  A    between atoms: _341  and  _342
REMARK  140  A    between atoms: _341  and  _344
REMARK  141  A    between atoms: _344  and  _345
REMARK  142  A    between atoms: _345  and  _346
REMARK  143  A    between atoms: _349  and  _351
REMARK  144  A    between atoms: _351  and  _352
REMARK  145  A    between atoms: _351  and  _354
REMARK  146  A    between atoms: _354  and  _355
REMARK  147  A    between atoms: _358  and  _360
REMARK  148  A    between atoms: _360  and  _361
REMARK  149  A    between atoms: _360  and  _363
REMARK  150  A    between atoms: _363  and  _364
REMARK  151  A    between atoms: _367  and  _369
REMARK  152  A    between atoms: _369  and  _370
REMARK  153  A    between atoms: _372  and  _374
REMARK  154  A    between atoms: _374  and  _375
REMARK  155  A    between atoms: _374  and  _377
REMARK  156  A    between atoms: _380  and  _382
REMARK  157  A    between atoms: _382  and  _383
REMARK  158  A    between atoms: _382  and  _385
REMARK  159  A    between atoms: _385  and  _386
REMARK  160  A    between atoms: _388  and  _390
REMARK  161  A    between atoms: _390  and  _391
REMARK  162  A    between atoms: _390  and  _393
REMARK  163  A    between atoms: _393  and  _394
REMARK  164  A    between atoms: _394  and  _395
REMARK  165  A    between atoms: _397  and  _399
REMARK  166  A    between atoms: _399  and  _400
REMARK  167  A    between atoms: _399  and  _402
REMARK  168  A    between atoms: _402  and  _403
REMARK  169  A    between atoms: _408  and  _409
REMARK  170  A    between atoms: _411  and  _413
REMARK  171  A    between atoms: _413  and  _414
REMARK  172  A    between atoms: _413  and  _416
REMARK  173  A    between atoms: _416  and  _417
REMARK  174  A    between atoms: _420  and  _422
REMARK  175  A    between atoms: _422  and  _423
REMARK  176  A    between atoms: _422  and  _425
REMARK  177  A    between atoms: _425  and  _426
REMARK  178  A    between atoms: _428  and  _430
REMARK  179  A    between atoms: _430  and  _431
REMARK  180  A    between atoms: _430  and  _433
REMARK  181  A    between atoms: _433  and  _434
REMARK  182  A    between atoms: _437  and  _439
REMARK  183  A    between atoms: _439  and  _440
REMARK  184  A    between atoms: _439  and  _442
REMARK  185  A    between atoms: _442  and  _443
REMARK  186  A    between atoms: _448  and  _449
REMARK  187  A    between atoms: _451  and  _453
REMARK  188  A    between atoms: _453  and  _454
REMARK  189  A    between atoms: _453  and  _456
REMARK  190  A    between atoms: _456  and  _457
REMARK  191  A    between atoms: _459  and  _461
REMARK  192  A    between atoms: _461  and  _462
REMARK  193  A    between atoms: _461  and  _464
REMARK  194  A    between atoms: _464  and  _465
REMARK  195  A    between atoms: _471  and  _473
REMARK  196  A    between atoms: _473  and  _474
REMARK  197  A    between atoms: _473  and  _476
REMARK  198  A    between atoms: _476  and  _477
REMARK  199  A    between atoms: _477  and  _478
REMARK  200  A    between atoms: _478  and  _479
REMARK  201  A    between atoms: _488  and  _490
REMARK  202  A    between atoms: _490  and  _491
REMARK  203  A    between atoms: _490  and  _493
REMARK  204  A    between atoms: _496  and  _498
REMARK  205  A    between atoms: _498  and  _499
REMARK  206  A    between atoms: _501  and  _503
REMARK  207  A    between atoms: _503  and  _504
REMARK  208  A    between atoms: _503  and  _506
REMARK  209  A    between atoms: _506  and  _507
REMARK  210  A    between atoms: _510  and  _512
REMARK  211  A    between atoms: _512  and  _513
REMARK  212  A    between atoms: _512  and  _515
REMARK  213  A    between atoms: _515  and  _516
REMARK  214  A    between atoms: _516  and  _517
REMARK  215  A    between atoms: _519  and  _521
REMARK  216  A    between atoms: _521  and  _522
REMARK  217  A    between atoms: _521  and  _524
REMARK  218  A    between atoms: _524  and  _525
REMARK  219  A    between atoms: _531  and  _533
REMARK  220  A    between atoms: _533  and  _534
REMARK  221  A    between atoms: _533  and  _536
REMARK  222  A    between atoms: _536  and  _537
REMARK  223  A    between atoms: _542  and  _544
REMARK  224  A    between atoms: _544  and  _545
REMARK  225  A    between atoms: _544  and  _547
REMARK  226  A    between atoms: _547  and  _548
REMARK  227  A    between atoms: _558  and  _560
REMARK  228  A    between atoms: _560  and  _561
REMARK  229  A    between atoms: _560  and  _563
REMARK  230  A    between atoms: _566  and  _568
REMARK  231  A    between atoms: _568  and  _569
REMARK  232  A    between atoms: _568  and  _571
REMARK  233  A    between atoms: _571  and  _572
REMARK  234  A    between atoms: _575  and  _577
REMARK  235  A    between atoms: _577  and  _578
REMARK  236  A    between atoms: _577  and  _580
REMARK  237  A    between atoms: _580  and  _581
REMARK  238  A    between atoms: _581  and  _582
REMARK  239  A    between atoms: _584  and  _586
REMARK  240  A    between atoms: _586  and  _587
REMARK  241  A    between atoms: _586  and  _589
REMARK  242  A    between atoms: _589  and  _590
REMARK  243  A    between atoms: _593  and  _595
REMARK  244  A    between atoms: _595  and  _596
REMARK  245  A    between atoms: _595  and  _598
REMARK  246  A    between atoms: _598  and  _599
REMARK  247  A    between atoms: _602  and  _604
REMARK  248  A    between atoms: _604  and  _605
REMARK  249  A    between atoms: _607  and  _609
REMARK  250  A    between atoms: _609  and  _610
REMARK  251  A    between atoms: _609  and  _612
REMARK  252  A    between atoms: _612  and  _613
REMARK  253  A    between atoms: _615  and  _617
REMARK  254  A    between atoms: _617  and  _618
REMARK  255  A    between atoms: _617  and  _620
REMARK  256  A    between atoms: _620  and  _621
REMARK  257  A    between atoms: _631  and  _633
REMARK  258  A    between atoms: _633  and  _634
REMARK  259  A    between atoms: _633  and  _636
REMARK  260  A    between atoms: _636  and  _637
REMARK  261  A    between atoms: _639  and  _641
REMARK  262  A    between atoms: _641  and  _642
REMARK  263  A    between atoms: _641  and  _644
REMARK  264  A    between atoms: _644  and  _645
REMARK  265  A    between atoms: _648  and  _650
REMARK  266  A    between atoms: _650  and  _651
REMARK  267  A    between atoms: _654  and  _656
REMARK  268  A    between atoms: _656  and  _657
REMARK  269  A    between atoms: _656  and  _659
REMARK  270  A    between atoms: _659  and  _660
REMARK  271  A    between atoms: _662  and  _664
REMARK  272  A    between atoms: _664  and  _665
REMARK  273  A    between atoms: _664  and  _667
REMARK  274  A    between atoms: _667  and  _668
REMARK  275  A    between atoms: _668  and  _669
REMARK  276  A    between atoms: _673  and  _674
REMARK  277  A    between atoms: _679  and  _681
REMARK  278  A    between atoms: _681  and  _682
REMARK  279  A    between atoms: _681  and  _684
REMARK  280  A    between atoms: _684  and  _685
REMARK  281  A    between atoms: _687  and  _689
REMARK  282  A    between atoms: _689  and  _690
REMARK  283  A    between atoms: _689  and  _692
REMARK  284  A    between atoms: _692  and  _693
REMARK  285  A    between atoms: _693  and  _694
REMARK  286  A    between atoms: _699  and  _701
REMARK  287  A    between atoms: _701  and  _702
REMARK  288  A    between atoms: _701  and  _704
REMARK  289  A    between atoms: _704  and  _705
REMARK  290  A    between atoms: _705  and  _706
REMARK  291  A    between atoms: _711  and  _713
REMARK  292  A    between atoms: _713  and  _714
REMARK  293  A    between atoms: _713  and  _716
REMARK  294  A    between atoms: _716  and  _717
REMARK  295  A    between atoms: _720  and  _722
REMARK  296  A    between atoms: _722  and  _723
REMARK  297  A    between atoms: _722  and  _725
REMARK  298  A    between atoms: _725  and  _726
REMARK  299  A    between atoms: _729  and  _731
REMARK  300  A    between atoms: _731  and  _732
REMARK  301  A    between atoms: _731  and  _734
REMARK  302  A    between atoms: _734  and  _735
REMARK  303  A    between atoms: _741  and  _743
REMARK  304  A    between atoms: _743  and  _744
REMARK  305  A    between atoms: _743  and  _746
REMARK  306  A    between atoms: _746  and  _747
REMARK  307  A    between atoms: _752  and  _753
REMARK  308  A    between atoms: _755  and  _757
REMARK  309  A    between atoms: _757  and  _758
REMARK  310  A    between atoms: _757  and  _760
REMARK  311  A    between atoms: _760  and  _761
REMARK  312  A    between atoms: _767  and  _769
REMARK  313  A    between atoms: _769  and  _770
REMARK  314  A    between atoms: _769  and  _772
REMARK  315  A    between atoms: _772  and  _773
REMARK  316  A    between atoms: _778  and  _780
REMARK  317  A    between atoms: _780  and  _781
REMARK  318  A    between atoms: _780  and  _783
REMARK  319  A    between atoms: _783  and  _784
REMARK  320  A    between atoms: _784  and  _785
REMARK                            x       y       z     vdW  Elec       q    Type
REMARK                         _______ _______ _______ _____ _____    ______ ____
ROOT
ATOM      1  CA  TYR A   6      27.005  46.253  28.343  0.00  0.00    +0.153 C 
ENDROOT
BRANCH   1   4
ATOM      2  C   GLY A   5      24.656  46.989  27.956  0.00  0.00    +0.243 C 
ATOM      3  O   GLY A   5      24.953  48.118  28.088  0.00  0.00    -0.273 OA
ATOM      4  N   TYR A   6      25.553  46.019  28.048  0.00  0.00    -0.297 N 
ATOM      5  H   TYR A   6      25.233  45.040  27.908  0.00  0.00    +0.150 HD
BRANCH   2   6
ATOM      6  CA  GLY A   5      23.209  46.610  27.658  0.00  0.00    +0.176 C 
BRANCH   6   9
ATOM      7  C   ASN A   4      22.903  44.184  28.070  0.00  0.00    +0.241 C 
ATOM      8  O   ASN A   4      23.072  44.286  29.221  0.00  0.00    -0.273 OA
ATOM      9  N   GLY A   5      23.000  45.216  27.224  0.00  0.00    -0.295 N 
ATOM     10  H   GLY A   5      22.924  45.025  26.205  0.00  0.00    +0.150 HD
BRANCH   7  11
ATOM     11  CA  ASN A   4      22.564  42.785  27.427  0.00  0.00    +0.158 C 
BRANCH  11  14
ATOM     12  C   GLY A   3      20.574  43.330  26.114  0.00  0.00    +0.243 C 
ATOM     13  O   GLY A   3      20.063  43.813  27.067  0.00  0.00    -0.273 OA
ATOM     14  N   ASN A   4      21.796  42.815  26.147  0.00  0.00    -0.297 N 
ATOM     15  H   ASN A   4      22.220  42.431  25.279  0.00  0.00    +0.150 HD
BRANCH  12  16
ATOM     16  CA  GLY A   3      19.812  43.330  24.794  0.00  0.00    +0.176 C 
BRANCH  16  19
ATOM     17  C   SER A   2      20.365  41.262  23.602  0.00  0.00    +0.243 C 
ATOM     18  O   SER A   2      19.638  40.593  24.311  0.00  0.00    -0.273 OA
ATOM     19  N   GLY A   3      20.516  42.573  23.753  0.00  0.00    -0.295 N 
ATOM     20  H   GLY A   3      21.156  43.081  23.110  0.00  0.00    +0.150 HD
BRANCH  17  21
ATOM     21  CA  SER A   2      21.201  40.642  22.461  0.00  0.00    +0.178 C 
BRANCH  21  24
ATOM     22  C   GLN A   1      22.473  39.138  23.847  0.00  0.00    +0.238 C 
ATOM     23  O   GLN A   1      23.100  40.068  24.365  0.00  0.00    -0.274 OA
ATOM     24  N   SER A   2      21.600  39.316  22.875  0.00  0.00    -0.295 N 
ATOM     25  H   SER A   2      21.191  38.487  22.398  0.00  0.00    +0.150 HD
BRANCH  22  26
ATOM     26  CA  GLN A   1      22.623  37.715  24.341  0.00  0.00    +0.145 C 
BRANCH  26  27
ATOM     27  N   GLN A   1      23.996  37.432  24.775  0.00  0.00    -0.238 NA
ATOM     28  H   GLN A   1      24.350  37.911  25.628  0.00  0.00    +0.142 HD
ENDBRANCH  26  27
BRANCH  26  29
ATOM     29  CB  GLN A   1      21.625  37.587  25.500  0.00  0.00    +0.036 C 
BRANCH  29  30
ATOM     30  CG  GLN A   1      21.774  36.359  26.351  0.00  0.00    +0.087 C 
BRANCH  30  31
ATOM     31  CD  GLN A   1      21.590  35.090  25.555  0.00  0.00    +0.219 C 
ATOM     32  NE2 GLN A   1      20.340  34.760  25.238  0.00  0.00    -0.329 N 
ATOM     33 HE21 GLN A   1      19.550  35.367  25.537  0.00  0.00    +0.145 HD
ATOM     34 HE22 GLN A   1      20.153  33.896  24.691  0.00  0.00    +0.145 HD
ATOM     35  OE1 GLN A   1      22.561  34.413  25.229  0.00  0.00    -0.275 OA
ENDBRANCH  30  31
ENDBRANCH  29  30
ENDBRANCH  26  29
ENDBRANCH  22  26
ENDBRANCH  21  24
BRANCH  21  36
ATOM     36  CB  SER A   2      20.418  40.575  21.141  0.00  0.00    +0.166 C 
BRANCH  36  37
ATOM     37  OG  SER A   2      20.047  41.871  20.733  0.00  0.00    -0.380 OA
ATOM     38  H   SER A   2      20.860  42.420  20.602  0.00  0.00    +0.211 HD
ENDBRANCH  36  37
ENDBRANCH  21  36
ENDBRANCH  17  21
ENDBRANCH  16  19
ENDBRANCH  12  16
ENDBRANCH  11  14
BRANCH  11  39
ATOM     39  CB  ASN A   4      23.843  41.909  27.241  0.00  0.00    +0.114 C 
BRANCH  39  40
ATOM     40  CG  ASN A   4      24.896  42.554  26.326  0.00  0.00    +0.222 C 
ATOM     41  OD1 ASN A   4      25.552  43.492  26.672  0.00  0.00    -0.275 OA
ATOM     42  ND2 ASN A   4      25.001  42.033  25.127  0.00  0.00    -0.329 N 
ATOM     43 HD21 ASN A   4      24.414  41.217  24.861  0.00  0.00    +0.145 HD
ATOM     44 HD22 ASN A   4      25.672  42.436  24.442  0.00  0.00    +0.145 HD
ENDBRANCH  39  40
ENDBRANCH  11  39
ENDBRANCH   7  11
ENDBRANCH   6   9
ENDBRANCH   2   6
ENDBRANCH   1   4
BRANCH   1  45
ATOM     45  C   TYR A   6      27.822  46.662  27.110  0.00  0.00    +0.241 C 
ATOM     46  O   TYR A   6      28.816  47.285  27.237  0.00  0.00    -0.273 OA
ATOM     47  N   PHE A   7      27.352  46.291  25.928  0.00  0.00    -0.297 N 
ATOM     48  H   PHE A   7      26.614  45.559  25.888  0.00  0.00    +0.150 HD
BRANCH  47  49
ATOM     49  CA  PHE A   7      27.840  46.882  24.663  0.00  0.00    +0.153 C 
BRANCH  49  50
ATOM     50  C   PHE A   7      26.611  47.114  23.807  0.00  0.00    +0.241 C 
ATOM     51  O   PHE A   7      25.639  46.438  23.898  0.00  0.00    -0.273 OA
ATOM     52  N   LEU A   8      26.693  48.150  23.008  0.00  0.00    -0.297 N 
ATOM     53  H   LEU A   8      27.593  48.668  22.951  0.00  0.00    +0.150 HD
BRANCH  52  54
ATOM     54  CA  LEU A   8      25.557  48.609  22.187  0.00  0.00    +0.149 C 
BRANCH  54  55
ATOM     55  C   LEU A   8      25.555  47.888  20.836  0.00  0.00    +0.241 C 
ATOM     56  O   LEU A   8      26.519  47.288  20.439  0.00  0.00    -0.273 OA
ATOM     57  N   GLU A   9      24.441  48.036  20.129  0.00  0.00    -0.297 N 
ATOM     58  H   GLU A   9      23.749  48.764  20.398  0.00  0.00    +0.150 HD
BRANCH  57  59
ATOM     59  CA  GLU A   9      24.183  47.172  18.965  0.00  0.00    +0.149 C 
BRANCH  59  60
ATOM     60  C   GLU A   9      23.707  47.914  17.754  0.00  0.00    +0.241 C 
ATOM     61  N   THR A  10      23.872  49.234  17.740  0.00  0.00    -0.296 N 
ATOM     62  H   THR A  10      24.312  49.693  18.563  0.00  0.00    +0.150 HD
ATOM     63  O   GLU A   9      23.196  47.313  16.861  0.00  0.00    -0.273 OA
BRANCH  61  64
ATOM     64  CA  THR A  10      23.453  50.070  16.599  0.00  0.00    +0.164 C 
BRANCH  64  65
ATOM     65  C   THR A  10      24.603  50.965  16.141  0.00  0.00    +0.229 C 
ATOM     66  O   THR A  10      25.524  51.169  16.851  0.00  0.00    -0.286 OA
ENDBRANCH  64  65
BRANCH  64  67
ATOM     67  CB  THR A  10      22.224  50.959  16.988  0.00  0.00    +0.136 C 
ATOM     68  CG2 THR A  10      21.028  50.091  17.458  0.00  0.00    +0.034 C 
BRANCH  67  69
ATOM     69  OG1 THR A  10      22.592  51.839  18.065  0.00  0.00    -0.382 OA
ATOM     70  HG1 THR A  10      22.873  51.301  18.848  0.00  0.00    +0.210 HD
ENDBRANCH  67  69
ENDBRANCH  64  67
ENDBRANCH  61  64
ENDBRANCH  59  60
BRANCH  59  71
ATOM     71  CB  GLU A   9      23.143  46.066  19.345  0.00  0.00    +0.041 C 
BRANCH  71  72
ATOM     72  CG  GLU A   9      23.518  45.249  20.616  0.00  0.00    +0.116 C 
BRANCH  72  73
ATOM     73  CD  GLU A   9      22.533  44.143  20.933  0.00  0.00    +0.365 C 
ATOM     74  OE2 GLU A   9      22.393  43.885  22.093  0.00  0.00    -0.246 OA
ATOM     75  OE1 GLU A   9      21.952  43.546  20.035  0.00  0.00    -0.246 OA
ENDBRANCH  72  73
ENDBRANCH  71  72
ENDBRANCH  59  71
ENDBRANCH  57  59
ENDBRANCH  54  55
BRANCH  54  76
ATOM     76  CB  LEU A   8      25.598  50.169  22.016  0.00  0.00    +0.029 C 
BRANCH  76  77
ATOM     77  CG  LEU A   8      25.588  50.962  23.365  0.00  0.00    +0.002 C 
ATOM     78  CD2 LEU A   8      24.265  50.637  24.187  0.00  0.00    +0.000 C 
ATOM     79  CD1 LEU A   8      25.762  52.485  23.146  0.00  0.00    +0.000 C 
ENDBRANCH  76  77
ENDBRANCH  54  76
ENDBRANCH  52  54
ENDBRANCH  49  50
BRANCH  49  80
ATOM     80  CB  PHE A   7      28.942  46.070  23.968  0.00  0.00    +0.055 C 
BRANCH  80  81
ATOM     81  CG  PHE A   7      28.528  44.676  23.533  0.00  0.00    -0.020 A 
ATOM     82  CD2 PHE A   7      28.727  43.572  24.395  0.00  0.00    -0.004 A 
ATOM     83  CE2 PHE A   7      28.364  42.302  23.996  0.00  0.00    -0.000 A 
ATOM     84  CZ  PHE A   7      27.842  42.061  22.765  0.00  0.00    -0.000 A 
ATOM     85  CE1 PHE A   7      27.618  43.138  21.873  0.00  0.00    -0.000 A 
ATOM     86  CD1 PHE A   7      27.973  44.448  22.264  0.00  0.00    -0.004 A 
ENDBRANCH  80  81
ENDBRANCH  49  80
ENDBRANCH  47  49
ENDBRANCH   1  45
BRANCH   1  87
ATOM     87  CB  TYR A   6      27.604  45.040  29.084  0.00  0.00    +0.055 C 
BRANCH  87  88
ATOM     88  CG  TYR A   6      27.053  44.927  30.505  0.00  0.00    -0.020 A 
ATOM     89  CD2 TYR A   6      27.532  45.737  31.500  0.00  0.00    -0.001 A 
ATOM     90  CE2 TYR A   6      27.047  45.673  32.807  0.00  0.00    +0.036 A 
ATOM     91  CZ  TYR A   6      26.020  44.805  33.112  0.00  0.00    +0.134 A 
ATOM     92  CE1 TYR A   6      25.483  43.976  32.129  0.00  0.00    +0.036 A 
ATOM     93  CD1 TYR A   6      26.009  44.046  30.823  0.00  0.00    -0.001 A 
BRANCH  91  94
ATOM     94  OH  TYR A   6      25.555  44.799  34.410  0.00  0.00    -0.506 OA
ATOM     95  HH  TYR A   6      25.670  43.895  34.797  0.00  0.00    +0.292 HD
ENDBRANCH  91  94
ENDBRANCH  87  88
ENDBRANCH   1  87
TORSDOF 39
REMARK  Name = ../refined-set-2016/3drf/3drf_pocket.pdb
REMARK  320 active torsions:
REMARK  status: ('A' for Active; 'I' for Inactive)
REMARK    1  A    between atoms: _1  and  _3
REMARK    2  A    between atoms: _3  and  _4
REMARK    3  A    between atoms: _3  and  _6
REMARK    4  A    between atoms: _6  and  _7
REMARK    5  A    between atoms: _12  and  _13
REMARK    6  A    between atoms: _15  and  _17
REMARK    7  A    between atoms: _17  and  _18
REMARK    8  A    between atoms: _17  and  _20
REMARK    9  A    between atoms: _20  and  _21
REMARK   10  A    between atoms: _21  and  _22
REMARK   11  A    between atoms: _27  and  _29
REMARK   12  A    between atoms: _29  and  _30
REMARK   13  A    between atoms: _29  and  _32
REMARK   14  A    between atoms: _32  and  _33
REMARK   15  A    between atoms: _35  and  _37
REMARK   16  A    between atoms: _37  and  _38
REMARK   17  A    between atoms: _37  and  _40
REMARK   18  A    between atoms: _40  and  _41
REMARK   19  A    between atoms: _44  and  _46
REMARK   20  A    between atoms: _46  and  _47
REMARK   21  A    between atoms: _46  and  _49
REMARK   22  A    between atoms: _49  and  _50
REMARK   23  A    between atoms: _52  and  _54
REMARK   24  A    between atoms: _54  and  _55
REMARK   25  A    between atoms: _54  and  _57
REMARK   26  A    between atoms: _57  and  _58
REMARK   27  A    between atoms: _60  and  _62
REMARK   28  A    between atoms: _62  and  _63
REMARK   29  A    between atoms: _65  and  _67
REMARK   30  A    between atoms: _67  and  _68
REMARK   31  A    between atoms: _67  and  _70
REMARK   32  A    between atoms: _70  and  _71
REMARK   33  A    between atoms: _73  and  _75
REMARK   34  A    between atoms: _75  and  _76
REMARK   35  A    between atoms: _75  and  _78
REMARK   36  A    between atoms: _78  and  _79
REMARK   37  A    between atoms: _84  and  _86
REMARK   38  A    between atoms: _86  and  _87
REMARK   39  A    between atoms: _86  and  _89
REMARK   40  A    between atoms: _89  and  _90
REMARK   41  A    between atoms: _93  and  _95
REMARK   42  A    between atoms: _95  and  _96
REMARK   43  A    between atoms: _99  and  _101
REMARK   44  A    between atoms: _101  and  _102
REMARK   45  A    between atoms: _101  and  _104
REMARK   46  A    between atoms: _104  and  _105
REMARK   47  A    between atoms: _108  and  _110
REMARK   48  A    between atoms: _110  and  _111
REMARK   49  A    between atoms: _110  and  _113
REMARK   50  A    between atoms: _113  and  _114
REMARK   51  A    between atoms: _120  and  _122
REMARK   52  A    between atoms: _122  and  _123
REMARK   53  A    between atoms: _126  and  _128
REMARK   54  A    between atoms: _128  and  _129
REMARK   55  A    between atoms: _128  and  _131
REMARK   56  A    between atoms: _131  and  _132
REMARK   57  A    between atoms: _135  and  _137
REMARK   58  A    between atoms: _137  and  _138
REMARK   59  A    between atoms: _140  and  _142
REMARK   60  A    between atoms: _142  and  _143
REMARK   61  A    between atoms: _142  and  _145
REMARK   62  A    between atoms: _145  and  _146
REMARK   63  A    between atoms: _146  and  _147
REMARK   64  A    between atoms: _152  and  _154
REMARK   65  A    between atoms: _154  and  _155
REMARK   66  A    between atoms: _157  and  _159
REMARK   67  A    between atoms: _159  and  _160
REMARK   68  A    between atoms: _159  and  _162
REMARK   69  A    between atoms: _162  and  _163
REMARK   70  A    between atoms: _166  and  _168
REMARK   71  A    between atoms: _168  and  _169
REMARK   72  A    between atoms: _168  and  _171
REMARK   73  A    between atoms: _171  and  _172
REMARK   74  A    between atoms: _178  and  _180
REMARK   75  A    between atoms: _180  and  _181
REMARK   76  A    between atoms: _180  and  _183
REMARK   77  A    between atoms: _183  and  _184
REMARK   78  A    between atoms: _187  and  _189
REMARK   79  A    between atoms: _189  and  _190
REMARK   80  A    between atoms: _189  and  _192
REMARK   81  A    between atoms: _192  and  _193
REMARK   82  A    between atoms: _199  and  _201
REMARK   83  A    between atoms: _201  and  _202
REMARK   84  A    between atoms: _201  and  _204
REMARK   85  A    between atoms: _204  and  _205
REMARK   86  A    between atoms: _211  and  _213
REMARK   87  A    between atoms: _213  and  _214
REMARK   88  A    between atoms: _213  and  _216
REMARK   89  A    between atoms: _216  and  _217
REMARK   90  A    between atoms: _220  and  _222
REMARK   91  A    between atoms: _222  and  _223
REMARK   92  A    between atoms: _222  and  _225
REMARK   93  A    between atoms: _225  and  _226
REMARK   94  A    between atoms: _229  and  _231
REMARK   95  A    between atoms: _231  and  _232
REMARK   96  A    between atoms: _231  and  _234
REMARK   97  A    between atoms: _234  and  _235
REMARK   98  A    between atoms: _235  and  _236
REMARK   99  A    between atoms: _236  and  _237
REMARK  100  A    between atoms: _246  and  _248
REMARK  101  A    between atoms: _248  and  _249
REMARK  102  A    between atoms: _248  and  _251
REMARK  103  A    between atoms: _251  and  _252
REMARK  104  A    between atoms: _255  and  _257
REMARK  105  A    between atoms: _257  and  _258
REMARK  106  A    between atoms: _257  and  _260
REMARK  107  A    between atoms: _260  and  _261
REMARK  108  A    between atoms: _263  and  _265
REMARK  109  A    between atoms: _265  and  _266
REMARK  110  A    between atoms: _265  and  _268
REMARK  111  A    between atoms: _268  and  _269
REMARK  112  A    between atoms: _269  and  _270
REMARK  113  A    between atoms: _275  and  _277
REMARK  114  A    between atoms: _277  and  _278
REMARK  115  A    between atoms: _277  and  _280
REMARK  116  A    between atoms: _280  and  _281
REMARK  117  A    between atoms: _283  and  _285
REMARK  118  A    between atoms: _285  and  _286
REMARK  119  A    between atoms: _288  and  _290
REMARK  120  A    between atoms: _290  and  _291
REMARK  121  A    between atoms: _290  and  _293
REMARK  122  A    between atoms: _293  and  _294
REMARK  123  A    between atoms: _299  and  _301
REMARK  124  A    between atoms: _301  and  _302
REMARK  125  A    between atoms: _304  and  _306
REMARK  126  A    between atoms: _306  and  _307
REMARK  127  A    between atoms: _306  and  _309
REMARK  128  A    between atoms: _309  and  _310
REMARK  129  A    between atoms: _315  and  _316
REMARK  130  A    between atoms: _318  and  _320
REMARK  131  A    between atoms: _320  and  _321
REMARK  132  A    between atoms: _320  and  _323
REMARK  133  A    between atoms: _323  and  _324
REMARK  134  A    between atoms: _330  and  _332
REMARK  135  A    between atoms: _332  and  _333
REMARK  136  A    between atoms: _332  and  _335
REMARK  137  A    between atoms: _335  and  _336
REMARK  138  A    between atoms: _339  and  _341
REMARK  139  A    between atoms: _341  and  _342
REMARK  140  A    between atoms: _341  and  _344
REMARK  141  A    between atoms: _344  and  _345
REMARK  142  A    between atoms: _345  and  _346
REMARK  143  A    between atoms: _349  and  _351
REMARK  144  A    between atoms: _351  and  _352
REMARK  145  A    between atoms: _351  and  _354
REMARK  146  A    between atoms: _354  and  _355
REMARK  147  A    between atoms: _358  and  _360
REMARK  148  A    between atoms: _360  and  _361
REMARK  149  A    between atoms: _360  and  _363
REMARK  150  A    between atoms: _363  and  _364
REMARK  151  A    between atoms: _367  and  _369
REMARK  152  A    between atoms: _369  and  _370
REMARK  153  A    between atoms: _372  and  _374
REMARK  154  A    between atoms: _374  and  _375
REMARK  155  A    between atoms: _374  and  _377
REMARK  156  A    between atoms: _380  and  _382
REMARK  157  A    between atoms: _382  and  _383
REMARK  158  A    between atoms: _382  and  _385
REMARK  159  A    between atoms: _385  and  _386
REMARK  160  A    between atoms: _388  and  _390
REMARK  161  A    between atoms: _390  and  _391
REMARK  162  A    between atoms: _390  and  _393
REMARK  163  A    between atoms: _393  and  _394
REMARK  164  A    between atoms: _394  and  _395
REMARK  165  A    between atoms: _397  and  _399
REMARK  166  A    between atoms: _399  and  _400
REMARK  167  A    between atoms: _399  and  _402
REMARK  168  A    between atoms: _402  and  _403
REMARK  169  A    between atoms: _408  and  _409
REMARK  170  A    between atoms: _411  and  _413
REMARK  171  A    between atoms: _413  and  _414
REMARK  172  A    between atoms: _413  and  _416
REMARK  173  A    between atoms: _416  and  _417
REMARK  174  A    between atoms: _420  and  _422
REMARK  175  A    between atoms: _422  and  _423
REMARK  176  A    between atoms: _422  and  _425
REMARK  177  A    between atoms: _425  and  _426
REMARK  178  A    between atoms: _428  and  _430
REMARK  179  A    between atoms: _430  and  _431
REMARK  180  A    between atoms: _430  and  _433
REMARK  181  A    between atoms: _433  and  _434
REMARK  182  A    between atoms: _437  and  _439
REMARK  183  A    between atoms: _439  and  _440
REMARK  184  A    between atoms: _439  and  _442
REMARK  185  A    between atoms: _442  and  _443
REMARK  186  A    between atoms: _448  and  _449
REMARK  187  A    between atoms: _451  and  _453
REMARK  188  A    between atoms: _453  and  _454
REMARK  189  A    between atoms: _453  and  _456
REMARK  190  A    between atoms: _456  and  _457
REMARK  191  A    between atoms: _459  and  _461
REMARK  192  A    between atoms: _461  and  _462
REMARK  193  A    between atoms: _461  and  _464
REMARK  194  A    between atoms: _464  and  _465
REMARK  195  A    between atoms: _471  and  _473
REMARK  196  A    between atoms: _473  and  _474
REMARK  197  A    between atoms: _473  and  _476
REMARK  198  A    between atoms: _476  and  _477
REMARK  199  A    between atoms: _477  and  _478
REMARK  200  A    between atoms: _478  and  _479
REMARK  201  A    between atoms: _488  and  _490
REMARK  202  A    between atoms: _490  and  _491
REMARK  203  A    between atoms: _490  and  _493
REMARK  204  A    between atoms: _496  and  _498
REMARK  205  A    between atoms: _498  and  _499
REMARK  206  A    between atoms: _501  and  _503
REMARK  207  A    between atoms: _503  and  _504
REMARK  208  A    between atoms: _503  and  _506
REMARK  209  A    between atoms: _506  and  _507
REMARK  210  A    between atoms: _510  and  _512
REMARK  211  A    between atoms: _512  and  _513
REMARK  212  A    between atoms: _512  and  _515
REMARK  213  A    between atoms: _515  and  _516
REMARK  214  A    between atoms: _516  and  _517
REMARK  215  A    between atoms: _519  and  _521
REMARK  216  A    between atoms: _521  and  _522
REMARK  217  A    between atoms: _521  and  _524
REMARK  218  A    between atoms: _524  and  _525
REMARK  219  A    between atoms: _531  and  _533
REMARK  220  A    between atoms: _533  and  _534
REMARK  221  A    between atoms: _533  and  _536
REMARK  222  A    between atoms: _536  and  _537
REMARK  223  A    between atoms: _542  and  _544
REMARK  224  A    between atoms: _544  and  _545
REMARK  225  A    between atoms: _544  and  _547
REMARK  226  A    between atoms: _547  and  _548
REMARK  227  A    between atoms: _558  and  _560
REMARK  228  A    between atoms: _560  and  _561
REMARK  229  A    between atoms: _560  and  _563
REMARK  230  A    between atoms: _566  and  _568
REMARK  231  A    between atoms: _568  and  _569
REMARK  232  A    between atoms: _568  and  _571
REMARK  233  A    between atoms: _571  and  _572
REMARK  234  A    between atoms: _575  and  _577
REMARK  235  A    between atoms: _577  and  _578
REMARK  236  A    between atoms: _577  and  _580
REMARK  237  A    between atoms: _580  and  _581
REMARK  238  A    between atoms: _581  and  _582
REMARK  239  A    between atoms: _584  and  _586
REMARK  240  A    between atoms: _586  and  _587
REMARK  241  A    between atoms: _586  and  _589
REMARK  242  A    between atoms: _589  and  _590
REMARK  243  A    between atoms: _593  and  _595
REMARK  244  A    between atoms: _595  and  _596
REMARK  245  A    between atoms: _595  and  _598
REMARK  246  A    between atoms: _598  and  _599
REMARK  247  A    between atoms: _602  and  _604
REMARK  248  A    between atoms: _604  and  _605
REMARK  249  A    between atoms: _607  and  _609
REMARK  250  A    between atoms: _609  and  _610
REMARK  251  A    between atoms: _609  and  _612
REMARK  252  A    between atoms: _612  and  _613
REMARK  253  A    between atoms: _615  and  _617
REMARK  254  A    between atoms: _617  and  _618
REMARK  255  A    between atoms: _617  and  _620
REMARK  256  A    between atoms: _620  and  _621
REMARK  257  A    between atoms: _631  and  _633
REMARK  258  A    between atoms: _633  and  _634
REMARK  259  A    between atoms: _633  and  _636
REMARK  260  A    between atoms: _636  and  _637
REMARK  261  A    between atoms: _639  and  _641
REMARK  262  A    between atoms: _641  and  _642
REMARK  263  A    between atoms: _641  and  _644
REMARK  264  A    between atoms: _644  and  _645
REMARK  265  A    between atoms: _648  and  _650
REMARK  266  A    between atoms: _650  and  _651
REMARK  267  A    between atoms: _654  and  _656
REMARK  268  A    between atoms: _656  and  _657
REMARK  269  A    between atoms: _656  and  _659
REMARK  270  A    between atoms: _659  and  _660
REMARK  271  A    between atoms: _662  and  _664
REMARK  272  A    between atoms: _664  and  _665
REMARK  273  A    between atoms: _664  and  _667
REMARK  274  A    between atoms: _667  and  _668
REMARK  275  A    between atoms: _668  and  _669
REMARK  276  A    between atoms: _673  and  _674
REMARK  277  A    between atoms: _679  and  _681
REMARK  278  A    between atoms: _681  and  _682
REMARK  279  A    between atoms: _681  and  _684
REMARK  280  A    between atoms: _684  and  _685
REMARK  281  A    between atoms: _687  and  _689
REMARK  282  A    between atoms: _689  and  _690
REMARK  283  A    between atoms: _689  and  _692
REMARK  284  A    between atoms: _692  and  _693
REMARK  285  A    between atoms: _693  and  _694
REMARK  286  A    between atoms: _699  and  _701
REMARK  287  A    between atoms: _701  and  _702
REMARK  288  A    between atoms: _701  and  _704
REMARK  289  A    between atoms: _704  and  _705
REMARK  290  A    between atoms: _705  and  _706
REMARK  291  A    between atoms: _711  and  _713
REMARK  292  A    between atoms: _713  and  _714
REMARK  293  A    between atoms: _713  and  _716
REMARK  294  A    between atoms: _716  and  _717
REMARK  295  A    between atoms: _720  and  _722
REMARK  296  A    between atoms: _722  and  _723
REMARK  297  A    between atoms: _722  and  _725
REMARK  298  A    between atoms: _725  and  _726
REMARK  299  A    between atoms: _729  and  _731
REMARK  300  A    between atoms: _731  and  _732
REMARK  301  A    between atoms: _731  and  _734
REMARK  302  A    between atoms: _734  and  _735
REMARK  303  A    between atoms: _741  and  _743
REMARK  304  A    between atoms: _743  and  _744
REMARK  305  A    between atoms: _743  and  _746
REMARK  306  A    between atoms: _746  and  _747
REMARK  307  A    between atoms: _752  and  _753
REMARK  308  A    between atoms: _755  and  _757
REMARK  309  A    between atoms: _757  and  _758
REMARK  310  A    between atoms: _757  and  _760
REMARK  311  A    between atoms: _760  and  _761
REMARK  312  A    between atoms: _767  and  _769
REMARK  313  A    between atoms: _769  and  _770
REMARK  314  A    between atoms: _769  and  _772
REMARK  315  A    between atoms: _772  and  _773
REMARK  316  A    between atoms: _778  and  _780
REMARK  317  A    between atoms: _780  and  _781
REMARK  318  A    between atoms: _780  and  _783
REMARK  319  A    between atoms: _783  and  _784
REMARK  320  A    between atoms: _784  and  _785
REMARK                            x       y       z     vdW  Elec       q    Type
REMARK                         _______ _______ _______ _____ _____    ______ ____
ROOT
ATOM      1  CA  THR A   1      -7.301  53.015  19.787  0.00  0.00    +0.160 C 
ENDROOT
BRANCH   1   2
ATOM      2  N   THR A   1      -6.646  54.170  19.209  0.00  0.00    -0.237 NA
ATOM      3  H   THR A   1      -6.240  54.895  19.834  0.00  0.00    +0.142 HD
ENDBRANCH   1   2
BRANCH   1   4
ATOM      4  CB  THR A   1      -7.155  53.061  21.299  0.00  0.00    +0.134 C 
ATOM      5  CG2 THR A   1      -7.597  51.760  21.917  0.00  0.00    +0.034 C 
BRANCH   4   6
ATOM      6  OG1 THR A   1      -5.777  53.317  21.609  0.00  0.00    -0.383 OA
ATOM      7  HG1 THR A   1      -5.507  54.184  21.214  0.00  0.00    +0.210 HD
ENDBRANCH   4   6
ENDBRANCH   1   4
BRANCH   1   8
ATOM      8  C   THR A   1      -8.778  52.934  19.380  0.00  0.00    +0.227 C 
ATOM      9  O   THR A   1      -9.271  51.853  19.067  0.00  0.00    -0.287 OA
ENDBRANCH   1   8
TORSDOF 4
REMARK  Name = ../refined-set-2016/3drf/3drf_pocket.pdb
REMARK  320 active torsions:
REMARK  status: ('A' for Active; 'I' for Inactive)
REMARK    1  A    between atoms: _1  and  _3
REMARK    2  A    between atoms: _3  and  _4
REMARK    3  A    between atoms: _3  and  _6
REMARK    4  A    between atoms: _6  and  _7
REMARK    5  A    between atoms: _12  and  _13
REMARK    6  A    between atoms: _15  and  _17
REMARK    7  A    between atoms: _17  and  _18
REMARK    8  A    between atoms: _17  and  _20
REMARK    9  A    between atoms: _20  and  _21
REMARK   10  A    between atoms: _21  and  _22
REMARK   11  A    between atoms: _27  and  _29
REMARK   12  A    between atoms: _29  and  _30
REMARK   13  A    between atoms: _29  and  _32
REMARK   14  A    between atoms: _32  and  _33
REMARK   15  A    between atoms: _35  and  _37
REMARK   16  A    between atoms: _37  and  _38
REMARK   17  A    between atoms: _37  and  _40
REMARK   18  A    between atoms: _40  and  _41
REMARK   19  A    between atoms: _44  and  _46
REMARK   20  A    between atoms: _46  and  _47
REMARK   21  A    between atoms: _46  and  _49
REMARK   22  A    between atoms: _49  and  _50
REMARK   23  A    between atoms: _52  and  _54
REMARK   24  A    between atoms: _54  and  _55
REMARK   25  A    between atoms: _54  and  _57
REMARK   26  A    between atoms: _57  and  _58
REMARK   27  A    between atoms: _60  and  _62
REMARK   28  A    between atoms: _62  and  _63
REMARK   29  A    between atoms: _65  and  _67
REMARK   30  A    between atoms: _67  and  _68
REMARK   31  A    between atoms: _67  and  _70
REMARK   32  A    between atoms: _70  and  _71
REMARK   33  A    between atoms: _73  and  _75
REMARK   34  A    between atoms: _75  and  _76
REMARK   35  A    between atoms: _75  and  _78
REMARK   36  A    between atoms: _78  and  _79
REMARK   37  A    between atoms: _84  and  _86
REMARK   38  A    between atoms: _86  and  _87
REMARK   39  A    between atoms: _86  and  _89
REMARK   40  A    between atoms: _89  and  _90
REMARK   41  A    between atoms: _93  and  _95
REMARK   42  A    between atoms: _95  and  _96
REMARK   43  A    between atoms: _99  and  _101
REMARK   44  A    between atoms: _101  and  _102
REMARK   45  A    between atoms: _101  and  _104
REMARK   46  A    between atoms: _104  and  _105
REMARK   47  A    between atoms: _108  and  _110
REMARK   48  A    between atoms: _110  and  _111
REMARK   49  A    between atoms: _110  and  _113
REMARK   50  A    between atoms: _113  and  _114
REMARK   51  A    between atoms: _120  and  _122
REMARK   52  A    between atoms: _122  and  _123
REMARK   53  A    between atoms: _126  and  _128
REMARK   54  A    between atoms: _128  and  _129
REMARK   55  A    between atoms: _128  and  _131
REMARK   56  A    between atoms: _131  and  _132
REMARK   57  A    between atoms: _135  and  _137
REMARK   58  A    between atoms: _137  and  _138
REMARK   59  A    between atoms: _140  and  _142
REMARK   60  A    between atoms: _142  and  _143
REMARK   61  A    between atoms: _142  and  _145
REMARK   62  A    between atoms: _145  and  _146
REMARK   63  A    between atoms: _146  and  _147
REMARK   64  A    between atoms: _152  and  _154
REMARK   65  A    between atoms: _154  and  _155
REMARK   66  A    between atoms: _157  and  _159
REMARK   67  A    between atoms: _159  and  _160
REMARK   68  A    between atoms: _159  and  _162
REMARK   69  A    between atoms: _162  and  _163
REMARK   70  A    between atoms: _166  and  _168
REMARK   71  A    between atoms: _168  and  _169
REMARK   72  A    between atoms: _168  and  _171
REMARK   73  A    between atoms: _171  and  _172
REMARK   74  A    between atoms: _178  and  _180
REMARK   75  A    between atoms: _180  and  _181
REMARK   76  A    between atoms: _180  and  _183
REMARK   77  A    between atoms: _183  and  _184
REMARK   78  A    between atoms: _187  and  _189
REMARK   79  A    between atoms: _189  and  _190
REMARK   80  A    between atoms: _189  and  _192
REMARK   81  A    between atoms: _192  and  _193
REMARK   82  A    between atoms: _199  and  _201
REMARK   83  A    between atoms: _201  and  _202
REMARK   84  A    between atoms: _201  and  _204
REMARK   85  A    between atoms: _204  and  _205
REMARK   86  A    between atoms: _211  and  _213
REMARK   87  A    between atoms: _213  and  _214
REMARK   88  A    between atoms: _213  and  _216
REMARK   89  A    between atoms: _216  and  _217
REMARK   90  A    between atoms: _220  and  _222
REMARK   91  A    between atoms: _222  and  _223
REMARK   92  A    between atoms: _222  and  _225
REMARK   93  A    between atoms: _225  and  _226
REMARK   94  A    between atoms: _229  and  _231
REMARK   95  A    between atoms: _231  and  _232
REMARK   96  A    between atoms: _231  and  _234
REMARK   97  A    between atoms: _234  and  _235
REMARK   98  A    between atoms: _235  and  _236
REMARK   99  A    between atoms: _236  and  _237
REMARK  100  A    between atoms: _246  and  _248
REMARK  101  A    between atoms: _248  and  _249
REMARK  102  A    between atoms: _248  and  _251
REMARK  103  A    between atoms: _251  and  _252
REMARK  104  A    between atoms: _255  and  _257
REMARK  105  A    between atoms: _257  and  _258
REMARK  106  A    between atoms: _257  and  _260
REMARK  107  A    between atoms: _260  and  _261
REMARK  108  A    between atoms: _263  and  _265
REMARK  109  A    between atoms: _265  and  _266
REMARK  110  A    between atoms: _265  and  _268
REMARK  111  A    between atoms: _268  and  _269
REMARK  112  A    between atoms: _269  and  _270
REMARK  113  A    between atoms: _275  and  _277
REMARK  114  A    between atoms: _277  and  _278
REMARK  115  A    between atoms: _277  and  _280
REMARK  116  A    between atoms: _280  and  _281
REMARK  117  A    between atoms: _283  and  _285
REMARK  118  A    between atoms: _285  and  _286
REMARK  119  A    between atoms: _288  and  _290
REMARK  120  A    between atoms: _290  and  _291
REMARK  121  A    between atoms: _290  and  _293
REMARK  122  A    between atoms: _293  and  _294
REMARK  123  A    between atoms: _299  and  _301
REMARK  124  A    between atoms: _301  and  _302
REMARK  125  A    between atoms: _304  and  _306
REMARK  126  A    between atoms: _306  and  _307
REMARK  127  A    between atoms: _306  and  _309
REMARK  128  A    between atoms: _309  and  _310
REMARK  129  A    between atoms: _315  and  _316
REMARK  130  A    between atoms: _318  and  _320
REMARK  131  A    between atoms: _320  and  _321
REMARK  132  A    between atoms: _320  and  _323
REMARK  133  A    between atoms: _323  and  _324
REMARK  134  A    between atoms: _330  and  _332
REMARK  135  A    between atoms: _332  and  _333
REMARK  136  A    between atoms: _332  and  _335
REMARK  137  A    between atoms: _335  and  _336
REMARK  138  A    between atoms: _339  and  _341
REMARK  139  A    between atoms: _341  and  _342
REMARK  140  A    between atoms: _341  and  _344
REMARK  141  A    between atoms: _344  and  _345
REMARK  142  A    between atoms: _345  and  _346
REMARK  143  A    between atoms: _349  and  _351
REMARK  144  A    between atoms: _351  and  _352
REMARK  145  A    between atoms: _351  and  _354
REMARK  146  A    between atoms: _354  and  _355
REMARK  147  A    between atoms: _358  and  _360
REMARK  148  A    between atoms: _360  and  _361
REMARK  149  A    between atoms: _360  and  _363
REMARK  150  A    between atoms: _363  and  _364
REMARK  151  A    between atoms: _367  and  _369
REMARK  152  A    between atoms: _369  and  _370
REMARK  153  A    between atoms: _372  and  _374
REMARK  154  A    between atoms: _374  and  _375
REMARK  155  A    between atoms: _374  and  _377
REMARK  156  A    between atoms: _380  and  _382
REMARK  157  A    between atoms: _382  and  _383
REMARK  158  A    between atoms: _382  and  _385
REMARK  159  A    between atoms: _385  and  _386
REMARK  160  A    between atoms: _388  and  _390
REMARK  161  A    between atoms: _390  and  _391
REMARK  162  A    between atoms: _390  and  _393
REMARK  163  A    between atoms: _393  and  _394
REMARK  164  A    between atoms: _394  and  _395
REMARK  165  A    between atoms: _397  and  _399
REMARK  166  A    between atoms: _399  and  _400
REMARK  167  A    between atoms: _399  and  _402
REMARK  168  A    between atoms: _402  and  _403
REMARK  169  A    between atoms: _408  and  _409
REMARK  170  A    between atoms: _411  and  _413
REMARK  171  A    between atoms: _413  and  _414
REMARK  172  A    between atoms: _413  and  _416
REMARK  173  A    between atoms: _416  and  _417
REMARK  174  A    between atoms: _420  and  _422
REMARK  175  A    between atoms: _422  and  _423
REMARK  176  A    between atoms: _422  and  _425
REMARK  177  A    between atoms: _425  and  _426
REMARK  178  A    between atoms: _428  and  _430
REMARK  179  A    between atoms: _430  and  _431
REMARK  180  A    between atoms: _430  and  _433
REMARK  181  A    between atoms: _433  and  _434
REMARK  182  A    between atoms: _437  and  _439
REMARK  183  A    between atoms: _439  and  _440
REMARK  184  A    between atoms: _439  and  _442
REMARK  185  A    between atoms: _442  and  _443
REMARK  186  A    between atoms: _448  and  _449
REMARK  187  A    between atoms: _451  and  _453
REMARK  188  A    between atoms: _453  and  _454
REMARK  189  A    between atoms: _453  and  _456
REMARK  190  A    between atoms: _456  and  _457
REMARK  191  A    between atoms: _459  and  _461
REMARK  192  A    between atoms: _461  and  _462
REMARK  193  A    between atoms: _461  and  _464
REMARK  194  A    between atoms: _464  and  _465
REMARK  195  A    between atoms: _471  and  _473
REMARK  196  A    between atoms: _473  and  _474
REMARK  197  A    between atoms: _473  and  _476
REMARK  198  A    between atoms: _476  and  _477
REMARK  199  A    between atoms: _477  and  _478
REMARK  200  A    between atoms: _478  and  _479
REMARK  201  A    between atoms: _488  and  _490
REMARK  202  A    between atoms: _490  and  _491
REMARK  203  A    between atoms: _490  and  _493
REMARK  204  A    between atoms: _496  and  _498
REMARK  205  A    between atoms: _498  and  _499
REMARK  206  A    between atoms: _501  and  _503
REMARK  207  A    between atoms: _503  and  _504
REMARK  208  A    between atoms: _503  and  _506
REMARK  209  A    between atoms: _506  and  _507
REMARK  210  A    between atoms: _510  and  _512
REMARK  211  A    between atoms: _512  and  _513
REMARK  212  A    between atoms: _512  and  _515
REMARK  213  A    between atoms: _515  and  _516
REMARK  214  A    between atoms: _516  and  _517
REMARK  215  A    between atoms: _519  and  _521
REMARK  216  A    between atoms: _521  and  _522
REMARK  217  A    between atoms: _521  and  _524
REMARK  218  A    between atoms: _524  and  _525
REMARK  219  A    between atoms: _531  and  _533
REMARK  220  A    between atoms: _533  and  _534
REMARK  221  A    between atoms: _533  and  _536
REMARK  222  A    between atoms: _536  and  _537
REMARK  223  A    between atoms: _542  and  _544
REMARK  224  A    between atoms: _544  and  _545
REMARK  225  A    between atoms: _544  and  _547
REMARK  226  A    between atoms: _547  and  _548
REMARK  227  A    between atoms: _558  and  _560
REMARK  228  A    between atoms: _560  and  _561
REMARK  229  A    between atoms: _560  and  _563
REMARK  230  A    between atoms: _566  and  _568
REMARK  231  A    between atoms: _568  and  _569
REMARK  232  A    between atoms: _568  and  _571
REMARK  233  A    between atoms: _571  and  _572
REMARK  234  A    between atoms: _575  and  _577
REMARK  235  A    between atoms: _577  and  _578
REMARK  236  A    between atoms: _577  and  _580
REMARK  237  A    between atoms: _580  and  _581
REMARK  238  A    between atoms: _581  and  _582
REMARK  239  A    between atoms: _584  and  _586
REMARK  240  A    between atoms: _586  and  _587
REMARK  241  A    between atoms: _586  and  _589
REMARK  242  A    between atoms: _589  and  _590
REMARK  243  A    between atoms: _593  and  _595
REMARK  244  A    between atoms: _595  and  _596
REMARK  245  A    between atoms: _595  and  _598
REMARK  246  A    between atoms: _598  and  _599
REMARK  247  A    between atoms: _602  and  _604
REMARK  248  A    between atoms: _604  and  _605
REMARK  249  A    between atoms: _607  and  _609
REMARK  250  A    between atoms: _609  and  _610
REMARK  251  A    between atoms: _609  and  _612
REMARK  252  A    between atoms: _612  and  _613
REMARK  253  A    between atoms: _615  and  _617
REMARK  254  A    between atoms: _617  and  _618
REMARK  255  A    between atoms: _617  and  _620
REMARK  256  A    between atoms: _620  and  _621
REMARK  257  A    between atoms: _631  and  _633
REMARK  258  A    between atoms: _633  and  _634
REMARK  259  A    between atoms: _633  and  _636
REMARK  260  A    between atoms: _636  and  _637
REMARK  261  A    between atoms: _639  and  _641
REMARK  262  A    between atoms: _641  and  _642
REMARK  263  A    between atoms: _641  and  _644
REMARK  264  A    between atoms: _644  and  _645
REMARK  265  A    between atoms: _648  and  _650
REMARK  266  A    between atoms: _650  and  _651
REMARK  267  A    between atoms: _654  and  _656
REMARK  268  A    between atoms: _656  and  _657
REMARK  269  A    between atoms: _656  and  _659
REMARK  270  A    between atoms: _659  and  _660
REMARK  271  A    between atoms: _662  and  _664
REMARK  272  A    between atoms: _664  and  _665
REMARK  273  A    between atoms: _664  and  _667
REMARK  274  A    between atoms: _667  and  _668
REMARK  275  A    between atoms: _668  and  _669
REMARK  276  A    between atoms: _673  and  _674
REMARK  277  A    between atoms: _679  and  _681
REMARK  278  A    between atoms: _681  and  _682
REMARK  279  A    between atoms: _681  and  _684
REMARK  280  A    between atoms: _684  and  _685
REMARK  281  A    between atoms: _687  and  _689
REMARK  282  A    between atoms: _689  and  _690
REMARK  283  A    between atoms: _689  and  _692
REMARK  284  A    between atoms: _692  and  _693
REMARK  285  A    between atoms: _693  and  _694
REMARK  286  A    between atoms: _699  and  _701
REMARK  287  A    between atoms: _701  and  _702
REMARK  288  A    between atoms: _701  and  _704
REMARK  289  A    between atoms: _704  and  _705
REMARK  290  A    between atoms: _705  and  _706
REMARK  291  A    between atoms: _711  and  _713
REMARK  292  A    between atoms: _713  and  _714
REMARK  293  A    between atoms: _713  and  _716
REMARK  294  A    between atoms: _716  and  _717
REMARK  295  A    between atoms: _720  and  _722
REMARK  296  A    between atoms: _722  and  _723
REMARK  297  A    between atoms: _722  and  _725
REMARK  298  A    between atoms: _725  and  _726
REMARK  299  A    between atoms: _729  and  _731
REMARK  300  A    between atoms: _731  and  _732
REMARK  301  A    between atoms: _731  and  _734
REMARK  302  A    between atoms: _734  and  _735
REMARK  303  A    between atoms: _741  and  _743
REMARK  304  A    between atoms: _743  and  _744
REMARK  305  A    between atoms: _743  and  _746
REMARK  306  A    between atoms: _746  and  _747
REMARK  307  A    between atoms: _752  and  _753
REMARK  308  A    between atoms: _755  and  _757
REMARK  309  A    between atoms: _757  and  _758
REMARK  310  A    between atoms: _757  and  _760
REMARK  311  A    between atoms: _760  and  _761
REMARK  312  A    between atoms: _767  and  _769
REMARK  313  A    between atoms: _769  and  _770
REMARK  314  A    between atoms: _769  and  _772
REMARK  315  A    between atoms: _772  and  _773
REMARK  316  A    between atoms: _778  and  _780
REMARK  317  A    between atoms: _780  and  _781
REMARK  318  A    between atoms: _780  and  _783
REMARK  319  A    between atoms: _783  and  _784
REMARK  320  A    between atoms: _784  and  _785
REMARK                            x       y       z     vdW  Elec       q    Type
REMARK                         _______ _______ _______ _____ _____    ______ ____
ROOT
ATOM      1  CA  GLY A   1       0.448  47.203  19.479  0.00  0.00    +0.156 C 
ENDROOT
BRANCH   1   2
ATOM      2  N   GLY A   1       0.676  46.491  18.221  0.00  0.00    -0.238 NA
ATOM      3  H   GLY A   1       1.024  45.511  18.255  0.00  0.00    +0.142 HD
ENDBRANCH   1   2
BRANCH   1   4
ATOM      4  C   GLY A   1      -0.975  47.319  19.978  0.00  0.00    +0.226 C 
ATOM      5  O   GLY A   1      -1.243  48.095  20.825  0.00  0.00    -0.287 OA
ENDBRANCH   1   4
TORSDOF 2
REMARK  Name = ../refined-set-2016/3drf/3drf_pocket.pdb
REMARK  320 active torsions:
REMARK  status: ('A' for Active; 'I' for Inactive)
REMARK    1  A    between atoms: _1  and  _3
REMARK    2  A    between atoms: _3  and  _4
REMARK    3  A    between atoms: _3  and  _6
REMARK    4  A    between atoms: _6  and  _7
REMARK    5  A    between atoms: _12  and  _13
REMARK    6  A    between atoms: _15  and  _17
REMARK    7  A    between atoms: _17  and  _18
REMARK    8  A    between atoms: _17  and  _20
REMARK    9  A    between atoms: _20  and  _21
REMARK   10  A    between atoms: _21  and  _22
REMARK   11  A    between atoms: _27  and  _29
REMARK   12  A    between atoms: _29  and  _30
REMARK   13  A    between atoms: _29  and  _32
REMARK   14  A    between atoms: _32  and  _33
REMARK   15  A    between atoms: _35  and  _37
REMARK   16  A    between atoms: _37  and  _38
REMARK   17  A    between atoms: _37  and  _40
REMARK   18  A    between atoms: _40  and  _41
REMARK   19  A    between atoms: _44  and  _46
REMARK   20  A    between atoms: _46  and  _47
REMARK   21  A    between atoms: _46  and  _49
REMARK   22  A    between atoms: _49  and  _50
REMARK   23  A    between atoms: _52  and  _54
REMARK   24  A    between atoms: _54  and  _55
REMARK   25  A    between atoms: _54  and  _57
REMARK   26  A    between atoms: _57  and  _58
REMARK   27  A    between atoms: _60  and  _62
REMARK   28  A    between atoms: _62  and  _63
REMARK   29  A    between atoms: _65  and  _67
REMARK   30  A    between atoms: _67  and  _68
REMARK   31  A    between atoms: _67  and  _70
REMARK   32  A    between atoms: _70  and  _71
REMARK   33  A    between atoms: _73  and  _75
REMARK   34  A    between atoms: _75  and  _76
REMARK   35  A    between atoms: _75  and  _78
REMARK   36  A    between atoms: _78  and  _79
REMARK   37  A    between atoms: _84  and  _86
REMARK   38  A    between atoms: _86  and  _87
REMARK   39  A    between atoms: _86  and  _89
REMARK   40  A    between atoms: _89  and  _90
REMARK   41  A    between atoms: _93  and  _95
REMARK   42  A    between atoms: _95  and  _96
REMARK   43  A    between atoms: _99  and  _101
REMARK   44  A    between atoms: _101  and  _102
REMARK   45  A    between atoms: _101  and  _104
REMARK   46  A    between atoms: _104  and  _105
REMARK   47  A    between atoms: _108  and  _110
REMARK   48  A    between atoms: _110  and  _111
REMARK   49  A    between atoms: _110  and  _113
REMARK   50  A    between atoms: _113  and  _114
REMARK   51  A    between atoms: _120  and  _122
REMARK   52  A    between atoms: _122  and  _123
REMARK   53  A    between atoms: _126  and  _128
REMARK   54  A    between atoms: _128  and  _129
REMARK   55  A    between atoms: _128  and  _131
REMARK   56  A    between atoms: _131  and  _132
REMARK   57  A    between atoms: _135  and  _137
REMARK   58  A    between atoms: _137  and  _138
REMARK   59  A    between atoms: _140  and  _142
REMARK   60  A    between atoms: _142  and  _143
REMARK   61  A    between atoms: _142  and  _145
REMARK   62  A    between atoms: _145  and  _146
REMARK   63  A    between atoms: _146  and  _147
REMARK   64  A    between atoms: _152  and  _154
REMARK   65  A    between atoms: _154  and  _155
REMARK   66  A    between atoms: _157  and  _159
REMARK   67  A    between atoms: _159  and  _160
REMARK   68  A    between atoms: _159  and  _162
REMARK   69  A    between atoms: _162  and  _163
REMARK   70  A    between atoms: _166  and  _168
REMARK   71  A    between atoms: _168  and  _169
REMARK   72  A    between atoms: _168  and  _171
REMARK   73  A    between atoms: _171  and  _172
REMARK   74  A    between atoms: _178  and  _180
REMARK   75  A    between atoms: _180  and  _181
REMARK   76  A    between atoms: _180  and  _183
REMARK   77  A    between atoms: _183  and  _184
REMARK   78  A    between atoms: _187  and  _189
REMARK   79  A    between atoms: _189  and  _190
REMARK   80  A    between atoms: _189  and  _192
REMARK   81  A    between atoms: _192  and  _193
REMARK   82  A    between atoms: _199  and  _201
REMARK   83  A    between atoms: _201  and  _202
REMARK   84  A    between atoms: _201  and  _204
REMARK   85  A    between atoms: _204  and  _205
REMARK   86  A    between atoms: _211  and  _213
REMARK   87  A    between atoms: _213  and  _214
REMARK   88  A    between atoms: _213  and  _216
REMARK   89  A    between atoms: _216  and  _217
REMARK   90  A    between atoms: _220  and  _222
REMARK   91  A    between atoms: _222  and  _223
REMARK   92  A    between atoms: _222  and  _225
REMARK   93  A    between atoms: _225  and  _226
REMARK   94  A    between atoms: _229  and  _231
REMARK   95  A    between atoms: _231  and  _232
REMARK   96  A    between atoms: _231  and  _234
REMARK   97  A    between atoms: _234  and  _235
REMARK   98  A    between atoms: _235  and  _236
REMARK   99  A    between atoms: _236  and  _237
REMARK  100  A    between atoms: _246  and  _248
REMARK  101  A    between atoms: _248  and  _249
REMARK  102  A    between atoms: _248  and  _251
REMARK  103  A    between atoms: _251  and  _252
REMARK  104  A    between atoms: _255  and  _257
REMARK  105  A    between atoms: _257  and  _258
REMARK  106  A    between atoms: _257  and  _260
REMARK  107  A    between atoms: _260  and  _261
REMARK  108  A    between atoms: _263  and  _265
REMARK  109  A    between atoms: _265  and  _266
REMARK  110  A    between atoms: _265  and  _268
REMARK  111  A    between atoms: _268  and  _269
REMARK  112  A    between atoms: _269  and  _270
REMARK  113  A    between atoms: _275  and  _277
REMARK  114  A    between atoms: _277  and  _278
REMARK  115  A    between atoms: _277  and  _280
REMARK  116  A    between atoms: _280  and  _281
REMARK  117  A    between atoms: _283  and  _285
REMARK  118  A    between atoms: _285  and  _286
REMARK  119  A    between atoms: _288  and  _290
REMARK  120  A    between atoms: _290  and  _291
REMARK  121  A    between atoms: _290  and  _293
REMARK  122  A    between atoms: _293  and  _294
REMARK  123  A    between atoms: _299  and  _301
REMARK  124  A    between atoms: _301  and  _302
REMARK  125  A    between atoms: _304  and  _306
REMARK  126  A    between atoms: _306  and  _307
REMARK  127  A    between atoms: _306  and  _309
REMARK  128  A    between atoms: _309  and  _310
REMARK  129  A    between atoms: _315  and  _316
REMARK  130  A    between atoms: _318  and  _320
REMARK  131  A    between atoms: _320  and  _321
REMARK  132  A    between atoms: _320  and  _323
REMARK  133  A    between atoms: _323  and  _324
REMARK  134  A    between atoms: _330  and  _332
REMARK  135  A    between atoms: _332  and  _333
REMARK  136  A    between atoms: _332  and  _335
REMARK  137  A    between atoms: _335  and  _336
REMARK  138  A    between atoms: _339  and  _341
REMARK  139  A    between atoms: _341  and  _342
REMARK  140  A    between atoms: _341  and  _344
REMARK  141  A    between atoms: _344  and  _345
REMARK  142  A    between atoms: _345  and  _346
REMARK  143  A    between atoms: _349  and  _351
REMARK  144  A    between atoms: _351  and  _352
REMARK  145  A    between atoms: _351  and  _354
REMARK  146  A    between atoms: _354  and  _355
REMARK  147  A    between atoms: _358  and  _360
REMARK  148  A    between atoms: _360  and  _361
REMARK  149  A    between atoms: _360  and  _363
REMARK  150  A    between atoms: _363  and  _364
REMARK  151  A    between atoms: _367  and  _369
REMARK  152  A    between atoms: _369  and  _370
REMARK  153  A    between atoms: _372  and  _374
REMARK  154  A    between atoms: _374  and  _375
REMARK  155  A    between atoms: _374  and  _377
REMARK  156  A    between atoms: _380  and  _382
REMARK  157  A    between atoms: _382  and  _383
REMARK  158  A    between atoms: _382  and  _385
REMARK  159  A    between atoms: _385  and  _386
REMARK  160  A    between atoms: _388  and  _390
REMARK  161  A    between atoms: _390  and  _391
REMARK  162  A    between atoms: _390  and  _393
REMARK  163  A    between atoms: _393  and  _394
REMARK  164  A    between atoms: _394  and  _395
REMARK  165  A    between atoms: _397  and  _399
REMARK  166  A    between atoms: _399  and  _400
REMARK  167  A    between atoms: _399  and  _402
REMARK  168  A    between atoms: _402  and  _403
REMARK  169  A    between atoms: _408  and  _409
REMARK  170  A    between atoms: _411  and  _413
REMARK  171  A    between atoms: _413  and  _414
REMARK  172  A    between atoms: _413  and  _416
REMARK  173  A    between atoms: _416  and  _417
REMARK  174  A    between atoms: _420  and  _422
REMARK  175  A    between atoms: _422  and  _423
REMARK  176  A    between atoms: _422  and  _425
REMARK  177  A    between atoms: _425  and  _426
REMARK  178  A    between atoms: _428  and  _430
REMARK  179  A    between atoms: _430  and  _431
REMARK  180  A    between atoms: _430  and  _433
REMARK  181  A    between atoms: _433  and  _434
REMARK  182  A    between atoms: _437  and  _439
REMARK  183  A    between atoms: _439  and  _440
REMARK  184  A    between atoms: _439  and  _442
REMARK  185  A    between atoms: _442  and  _443
REMARK  186  A    between atoms: _448  and  _449
REMARK  187  A    between atoms: _451  and  _453
REMARK  188  A    between atoms: _453  and  _454
REMARK  189  A    between atoms: _453  and  _456
REMARK  190  A    between atoms: _456  and  _457
REMARK  191  A    between atoms: _459  and  _461
REMARK  192  A    between atoms: _461  and  _462
REMARK  193  A    between atoms: _461  and  _464
REMARK  194  A    between atoms: _464  and  _465
REMARK  195  A    between atoms: _471  and  _473
REMARK  196  A    between atoms: _473  and  _474
REMARK  197  A    between atoms: _473  and  _476
REMARK  198  A    between atoms: _476  and  _477
REMARK  199  A    between atoms: _477  and  _478
REMARK  200  A    between atoms: _478  and  _479
REMARK  201  A    between atoms: _488  and  _490
REMARK  202  A    between atoms: _490  and  _491
REMARK  203  A    between atoms: _490  and  _493
REMARK  204  A    between atoms: _496  and  _498
REMARK  205  A    between atoms: _498  and  _499
REMARK  206  A    between atoms: _501  and  _503
REMARK  207  A    between atoms: _503  and  _504
REMARK  208  A    between atoms: _503  and  _506
REMARK  209  A    between atoms: _506  and  _507
REMARK  210  A    between atoms: _510  and  _512
REMARK  211  A    between atoms: _512  and  _513
REMARK  212  A    between atoms: _512  and  _515
REMARK  213  A    between atoms: _515  and  _516
REMARK  214  A    between atoms: _516  and  _517
REMARK  215  A    between atoms: _519  and  _521
REMARK  216  A    between atoms: _521  and  _522
REMARK  217  A    between atoms: _521  and  _524
REMARK  218  A    between atoms: _524  and  _525
REMARK  219  A    between atoms: _531  and  _533
REMARK  220  A    between atoms: _533  and  _534
REMARK  221  A    between atoms: _533  and  _536
REMARK  222  A    between atoms: _536  and  _537
REMARK  223  A    between atoms: _542  and  _544
REMARK  224  A    between atoms: _544  and  _545
REMARK  225  A    between atoms: _544  and  _547
REMARK  226  A    between atoms: _547  and  _548
REMARK  227  A    between atoms: _558  and  _560
REMARK  228  A    between atoms: _560  and  _561
REMARK  229  A    between atoms: _560  and  _563
REMARK  230  A    between atoms: _566  and  _568
REMARK  231  A    between atoms: _568  and  _569
REMARK  232  A    between atoms: _568  and  _571
REMARK  233  A    between atoms: _571  and  _572
REMARK  234  A    between atoms: _575  and  _577
REMARK  235  A    between atoms: _577  and  _578
REMARK  236  A    between atoms: _577  and  _580
REMARK  237  A    between atoms: _580  and  _581
REMARK  238  A    between atoms: _581  and  _582
REMARK  239  A    between atoms: _584  and  _586
REMARK  240  A    between atoms: _586  and  _587
REMARK  241  A    between atoms: _586  and  _589
REMARK  242  A    between atoms: _589  and  _590
REMARK  243  A    between atoms: _593  and  _595
REMARK  244  A    between atoms: _595  and  _596
REMARK  245  A    between atoms: _595  and  _598
REMARK  246  A    between atoms: _598  and  _599
REMARK  247  A    between atoms: _602  and  _604
REMARK  248  A    between atoms: _604  and  _605
REMARK  249  A    between atoms: _607  and  _609
REMARK  250  A    between atoms: _609  and  _610
REMARK  251  A    between atoms: _609  and  _612
REMARK  252  A    between atoms: _612  and  _613
REMARK  253  A    between atoms: _615  and  _617
REMARK  254  A    between atoms: _617  and  _618
REMARK  255  A    between atoms: _617  and  _620
REMARK  256  A    between atoms: _620  and  _621
REMARK  257  A    between atoms: _631  and  _633
REMARK  258  A    between atoms: _633  and  _634
REMARK  259  A    between atoms: _633  and  _636
REMARK  260  A    between atoms: _636  and  _637
REMARK  261  A    between atoms: _639  and  _641
REMARK  262  A    between atoms: _641  and  _642
REMARK  263  A    between atoms: _641  and  _644
REMARK  264  A    between atoms: _644  and  _645
REMARK  265  A    between atoms: _648  and  _650
REMARK  266  A    between atoms: _650  and  _651
REMARK  267  A    between atoms: _654  and  _656
REMARK  268  A    between atoms: _656  and  _657
REMARK  269  A    between atoms: _656  and  _659
REMARK  270  A    between atoms: _659  and  _660
REMARK  271  A    between atoms: _662  and  _664
REMARK  272  A    between atoms: _664  and  _665
REMARK  273  A    between atoms: _664  and  _667
REMARK  274  A    between atoms: _667  and  _668
REMARK  275  A    between atoms: _668  and  _669
REMARK  276  A    between atoms: _673  and  _674
REMARK  277  A    between atoms: _679  and  _681
REMARK  278  A    between atoms: _681  and  _682
REMARK  279  A    between atoms: _681  and  _684
REMARK  280  A    between atoms: _684  and  _685
REMARK  281  A    between atoms: _687  and  _689
REMARK  282  A    between atoms: _689  and  _690
REMARK  283  A    between atoms: _689  and  _692
REMARK  284  A    between atoms: _692  and  _693
REMARK  285  A    between atoms: _693  and  _694
REMARK  286  A    between atoms: _699  and  _701
REMARK  287  A    between atoms: _701  and  _702
REMARK  288  A    between atoms: _701  and  _704
REMARK  289  A    between atoms: _704  and  _705
REMARK  290  A    between atoms: _705  and  _706
REMARK  291  A    between atoms: _711  and  _713
REMARK  292  A    between atoms: _713  and  _714
REMARK  293  A    between atoms: _713  and  _716
REMARK  294  A    between atoms: _716  and  _717
REMARK  295  A    between atoms: _720  and  _722
REMARK  296  A    between atoms: _722  and  _723
REMARK  297  A    between atoms: _722  and  _725
REMARK  298  A    between atoms: _725  and  _726
REMARK  299  A    between atoms: _729  and  _731
REMARK  300  A    between atoms: _731  and  _732
REMARK  301  A    between atoms: _731  and  _734
REMARK  302  A    between atoms: _734  and  _735
REMARK  303  A    between atoms: _741  and  _743
REMARK  304  A    between atoms: _743  and  _744
REMARK  305  A    between atoms: _743  and  _746
REMARK  306  A    between atoms: _746  and  _747
REMARK  307  A    between atoms: _752  and  _753
REMARK  308  A    between atoms: _755  and  _757
REMARK  309  A    between atoms: _757  and  _758
REMARK  310  A    between atoms: _757  and  _760
REMARK  311  A    between atoms: _760  and  _761
REMARK  312  A    between atoms: _767  and  _769
REMARK  313  A    between atoms: _769  and  _770
REMARK  314  A    between atoms: _769  and  _772
REMARK  315  A    between atoms: _772  and  _773
REMARK  316  A    between atoms: _778  and  _780
REMARK  317  A    between atoms: _780  and  _781
REMARK  318  A    between atoms: _780  and  _783
REMARK  319  A    between atoms: _783  and  _784
REMARK  320  A    between atoms: _784  and  _785
REMARK                            x       y       z     vdW  Elec       q    Type
REMARK                         _______ _______ _______ _____ _____    ______ ____
ROOT
ATOM      1  C   VAL A   1      -5.423  45.346  23.586  0.00  0.00    +0.238 C 
ATOM      2  N   SER A   2      -5.212  44.761  24.743  0.00  0.00    -0.296 N 
ATOM      3  H   SER A   2      -4.588  45.226  25.433  0.00  0.00    +0.150 HD
ATOM      4  O   VAL A   1      -6.179  44.895  22.751  0.00  0.00    -0.274 OA
ENDROOT
BRANCH   1   5
ATOM      5  CA  VAL A   1      -4.669  46.693  23.389  0.00  0.00    +0.145 C 
BRANCH   5   6
ATOM      6  CB  VAL A   1      -5.503  47.854  23.990  0.00  0.00    +0.025 C 
ATOM      7  CG2 VAL A   1      -4.600  49.100  24.195  0.00  0.00    +0.002 C 
ATOM      8  CG1 VAL A   1      -6.785  48.164  23.201  0.00  0.00    +0.002 C 
ENDBRANCH   5   6
BRANCH   5   9
ATOM      9  N   VAL A   1      -4.359  46.921  21.978  0.00  0.00    -0.238 NA
ATOM     10  H   VAL A   1      -4.828  47.713  21.494  0.00  0.00    +0.142 HD
ENDBRANCH   5   9
ENDBRANCH   1   5
BRANCH   2  11
ATOM     11  CA  SER A   2      -5.821  43.484  25.096  0.00  0.00    +0.166 C 
BRANCH  11  12
ATOM     12  CB  SER A   2      -7.353  43.514  25.063  0.00  0.00    +0.229 C 
ATOM     13  OG  SER A   2      -7.975  42.508  24.747  0.00  0.00    -0.286 OA
ENDBRANCH  11  12
BRANCH  11  14
ATOM     14  C   SER A   2      -5.357  43.064  26.489  0.00  0.00    +0.165 C 
BRANCH  14  15
ATOM     15  O   SER A   2      -3.957  42.802  26.508  0.00  0.00    -0.380 OA
ATOM     16  H   SER A   2      -3.750  42.072  25.872  0.00  0.00    +0.211 HD
ENDBRANCH  14  15
ENDBRANCH  11  14
ENDBRANCH   2  11
TORSDOF 7
REMARK  Name = ../refined-set-2016/3drf/3drf_pocket.pdb
REMARK  320 active torsions:
REMARK  status: ('A' for Active; 'I' for Inactive)
REMARK    1  A    between atoms: _1  and  _3
REMARK    2  A    between atoms: _3  and  _4
REMARK    3  A    between atoms: _3  and  _6
REMARK    4  A    between atoms: _6  and  _7
REMARK    5  A    between atoms: _12  and  _13
REMARK    6  A    between atoms: _15  and  _17
REMARK    7  A    between atoms: _17  and  _18
REMARK    8  A    between atoms: _17  and  _20
REMARK    9  A    between atoms: _20  and  _21
REMARK   10  A    between atoms: _21  and  _22
REMARK   11  A    between atoms: _27  and  _29
REMARK   12  A    between atoms: _29  and  _30
REMARK   13  A    between atoms: _29  and  _32
REMARK   14  A    between atoms: _32  and  _33
REMARK   15  A    between atoms: _35  and  _37
REMARK   16  A    between atoms: _37  and  _38
REMARK   17  A    between atoms: _37  and  _40
REMARK   18  A    between atoms: _40  and  _41
REMARK   19  A    between atoms: _44  and  _46
REMARK   20  A    between atoms: _46  and  _47
REMARK   21  A    between atoms: _46  and  _49
REMARK   22  A    between atoms: _49  and  _50
REMARK   23  A    between atoms: _52  and  _54
REMARK   24  A    between atoms: _54  and  _55
REMARK   25  A    between atoms: _54  and  _57
REMARK   26  A    between atoms: _57  and  _58
REMARK   27  A    between atoms: _60  and  _62
REMARK   28  A    between atoms: _62  and  _63
REMARK   29  A    between atoms: _65  and  _67
REMARK   30  A    between atoms: _67  and  _68
REMARK   31  A    between atoms: _67  and  _70
REMARK   32  A    between atoms: _70  and  _71
REMARK   33  A    between atoms: _73  and  _75
REMARK   34  A    between atoms: _75  and  _76
REMARK   35  A    between atoms: _75  and  _78
REMARK   36  A    between atoms: _78  and  _79
REMARK   37  A    between atoms: _84  and  _86
REMARK   38  A    between atoms: _86  and  _87
REMARK   39  A    between atoms: _86  and  _89
REMARK   40  A    between atoms: _89  and  _90
REMARK   41  A    between atoms: _93  and  _95
REMARK   42  A    between atoms: _95  and  _96
REMARK   43  A    between atoms: _99  and  _101
REMARK   44  A    between atoms: _101  and  _102
REMARK   45  A    between atoms: _101  and  _104
REMARK   46  A    between atoms: _104  and  _105
REMARK   47  A    between atoms: _108  and  _110
REMARK   48  A    between atoms: _110  and  _111
REMARK   49  A    between atoms: _110  and  _113
REMARK   50  A    between atoms: _113  and  _114
REMARK   51  A    between atoms: _120  and  _122
REMARK   52  A    between atoms: _122  and  _123
REMARK   53  A    between atoms: _126  and  _128
REMARK   54  A    between atoms: _128  and  _129
REMARK   55  A    between atoms: _128  and  _131
REMARK   56  A    between atoms: _131  and  _132
REMARK   57  A    between atoms: _135  and  _137
REMARK   58  A    between atoms: _137  and  _138
REMARK   59  A    between atoms: _140  and  _142
REMARK   60  A    between atoms: _142  and  _143
REMARK   61  A    between atoms: _142  and  _145
REMARK   62  A    between atoms: _145  and  _146
REMARK   63  A    between atoms: _146  and  _147
REMARK   64  A    between atoms: _152  and  _154
REMARK   65  A    between atoms: _154  and  _155
REMARK   66  A    between atoms: _157  and  _159
REMARK   67  A    between atoms: _159  and  _160
REMARK   68  A    between atoms: _159  and  _162
REMARK   69  A    between atoms: _162  and  _163
REMARK   70  A    between atoms: _166  and  _168
REMARK   71  A    between atoms: _168  and  _169
REMARK   72  A    between atoms: _168  and  _171
REMARK   73  A    between atoms: _171  and  _172
REMARK   74  A    between atoms: _178  and  _180
REMARK   75  A    between atoms: _180  and  _181
REMARK   76  A    between atoms: _180  and  _183
REMARK   77  A    between atoms: _183  and  _184
REMARK   78  A    between atoms: _187  and  _189
REMARK   79  A    between atoms: _189  and  _190
REMARK   80  A    between atoms: _189  and  _192
REMARK   81  A    between atoms: _192  and  _193
REMARK   82  A    between atoms: _199  and  _201
REMARK   83  A    between atoms: _201  and  _202
REMARK   84  A    between atoms: _201  and  _204
REMARK   85  A    between atoms: _204  and  _205
REMARK   86  A    between atoms: _211  and  _213
REMARK   87  A    between atoms: _213  and  _214
REMARK   88  A    between atoms: _213  and  _216
REMARK   89  A    between atoms: _216  and  _217
REMARK   90  A    between atoms: _220  and  _222
REMARK   91  A    between atoms: _222  and  _223
REMARK   92  A    between atoms: _222  and  _225
REMARK   93  A    between atoms: _225  and  _226
REMARK   94  A    between atoms: _229  and  _231
REMARK   95  A    between atoms: _231  and  _232
REMARK   96  A    between atoms: _231  and  _234
REMARK   97  A    between atoms: _234  and  _235
REMARK   98  A    between atoms: _235  and  _236
REMARK   99  A    between atoms: _236  and  _237
REMARK  100  A    between atoms: _246  and  _248
REMARK  101  A    between atoms: _248  and  _249
REMARK  102  A    between atoms: _248  and  _251
REMARK  103  A    between atoms: _251  and  _252
REMARK  104  A    between atoms: _255  and  _257
REMARK  105  A    between atoms: _257  and  _258
REMARK  106  A    between atoms: _257  and  _260
REMARK  107  A    between atoms: _260  and  _261
REMARK  108  A    between atoms: _263  and  _265
REMARK  109  A    between atoms: _265  and  _266
REMARK  110  A    between atoms: _265  and  _268
REMARK  111  A    between atoms: _268  and  _269
REMARK  112  A    between atoms: _269  and  _270
REMARK  113  A    between atoms: _275  and  _277
REMARK  114  A    between atoms: _277  and  _278
REMARK  115  A    between atoms: _277  and  _280
REMARK  116  A    between atoms: _280  and  _281
REMARK  117  A    between atoms: _283  and  _285
REMARK  118  A    between atoms: _285  and  _286
REMARK  119  A    between atoms: _288  and  _290
REMARK  120  A    between atoms: _290  and  _291
REMARK  121  A    between atoms: _290  and  _293
REMARK  122  A    between atoms: _293  and  _294
REMARK  123  A    between atoms: _299  and  _301
REMARK  124  A    between atoms: _301  and  _302
REMARK  125  A    between atoms: _304  and  _306
REMARK  126  A    between atoms: _306  and  _307
REMARK  127  A    between atoms: _306  and  _309
REMARK  128  A    between atoms: _309  and  _310
REMARK  129  A    between atoms: _315  and  _316
REMARK  130  A    between atoms: _318  and  _320
REMARK  131  A    between atoms: _320  and  _321
REMARK  132  A    between atoms: _320  and  _323
REMARK  133  A    between atoms: _323  and  _324
REMARK  134  A    between atoms: _330  and  _332
REMARK  135  A    between atoms: _332  and  _333
REMARK  136  A    between atoms: _332  and  _335
REMARK  137  A    between atoms: _335  and  _336
REMARK  138  A    between atoms: _339  and  _341
REMARK  139  A    between atoms: _341  and  _342
REMARK  140  A    between atoms: _341  and  _344
REMARK  141  A    between atoms: _344  and  _345
REMARK  142  A    between atoms: _345  and  _346
REMARK  143  A    between atoms: _349  and  _351
REMARK  144  A    between atoms: _351  and  _352
REMARK  145  A    between atoms: _351  and  _354
REMARK  146  A    between atoms: _354  and  _355
REMARK  147  A    between atoms: _358  and  _360
REMARK  148  A    between atoms: _360  and  _361
REMARK  149  A    between atoms: _360  and  _363
REMARK  150  A    between atoms: _363  and  _364
REMARK  151  A    between atoms: _367  and  _369
REMARK  152  A    between atoms: _369  and  _370
REMARK  153  A    between atoms: _372  and  _374
REMARK  154  A    between atoms: _374  and  _375
REMARK  155  A    between atoms: _374  and  _377
REMARK  156  A    between atoms: _380  and  _382
REMARK  157  A    between atoms: _382  and  _383
REMARK  158  A    between atoms: _382  and  _385
REMARK  159  A    between atoms: _385  and  _386
REMARK  160  A    between atoms: _388  and  _390
REMARK  161  A    between atoms: _390  and  _391
REMARK  162  A    between atoms: _390  and  _393
REMARK  163  A    between atoms: _393  and  _394
REMARK  164  A    between atoms: _394  and  _395
REMARK  165  A    between atoms: _397  and  _399
REMARK  166  A    between atoms: _399  and  _400
REMARK  167  A    between atoms: _399  and  _402
REMARK  168  A    between atoms: _402  and  _403
REMARK  169  A    between atoms: _408  and  _409
REMARK  170  A    between atoms: _411  and  _413
REMARK  171  A    between atoms: _413  and  _414
REMARK  172  A    between atoms: _413  and  _416
REMARK  173  A    between atoms: _416  and  _417
REMARK  174  A    between atoms: _420  and  _422
REMARK  175  A    between atoms: _422  and  _423
REMARK  176  A    between atoms: _422  and  _425
REMARK  177  A    between atoms: _425  and  _426
REMARK  178  A    between atoms: _428  and  _430
REMARK  179  A    between atoms: _430  and  _431
REMARK  180  A    between atoms: _430  and  _433
REMARK  181  A    between atoms: _433  and  _434
REMARK  182  A    between atoms: _437  and  _439
REMARK  183  A    between atoms: _439  and  _440
REMARK  184  A    between atoms: _439  and  _442
REMARK  185  A    between atoms: _442  and  _443
REMARK  186  A    between atoms: _448  and  _449
REMARK  187  A    between atoms: _451  and  _453
REMARK  188  A    between atoms: _453  and  _454
REMARK  189  A    between atoms: _453  and  _456
REMARK  190  A    between atoms: _456  and  _457
REMARK  191  A    between atoms: _459  and  _461
REMARK  192  A    between atoms: _461  and  _462
REMARK  193  A    between atoms: _461  and  _464
REMARK  194  A    between atoms: _464  and  _465
REMARK  195  A    between atoms: _471  and  _473
REMARK  196  A    between atoms: _473  and  _474
REMARK  197  A    between atoms: _473  and  _476
REMARK  198  A    between atoms: _476  and  _477
REMARK  199  A    between atoms: _477  and  _478
REMARK  200  A    between atoms: _478  and  _479
REMARK  201  A    between atoms: _488  and  _490
REMARK  202  A    between atoms: _490  and  _491
REMARK  203  A    between atoms: _490  and  _493
REMARK  204  A    between atoms: _496  and  _498
REMARK  205  A    between atoms: _498  and  _499
REMARK  206  A    between atoms: _501  and  _503
REMARK  207  A    between atoms: _503  and  _504
REMARK  208  A    between atoms: _503  and  _506
REMARK  209  A    between atoms: _506  and  _507
REMARK  210  A    between atoms: _510  and  _512
REMARK  211  A    between atoms: _512  and  _513
REMARK  212  A    between atoms: _512  and  _515
REMARK  213  A    between atoms: _515  and  _516
REMARK  214  A    between atoms: _516  and  _517
REMARK  215  A    between atoms: _519  and  _521
REMARK  216  A    between atoms: _521  and  _522
REMARK  217  A    between atoms: _521  and  _524
REMARK  218  A    between atoms: _524  and  _525
REMARK  219  A    between atoms: _531  and  _533
REMARK  220  A    between atoms: _533  and  _534
REMARK  221  A    between atoms: _533  and  _536
REMARK  222  A    between atoms: _536  and  _537
REMARK  223  A    between atoms: _542  and  _544
REMARK  224  A    between atoms: _544  and  _545
REMARK  225  A    between atoms: _544  and  _547
REMARK  226  A    between atoms: _547  and  _548
REMARK  227  A    between atoms: _558  and  _560
REMARK  228  A    between atoms: _560  and  _561
REMARK  229  A    between atoms: _560  and  _563
REMARK  230  A    between atoms: _566  and  _568
REMARK  231  A    between atoms: _568  and  _569
REMARK  232  A    between atoms: _568  and  _571
REMARK  233  A    between atoms: _571  and  _572
REMARK  234  A    between atoms: _575  and  _577
REMARK  235  A    between atoms: _577  and  _578
REMARK  236  A    between atoms: _577  and  _580
REMARK  237  A    between atoms: _580  and  _581
REMARK  238  A    between atoms: _581  and  _582
REMARK  239  A    between atoms: _584  and  _586
REMARK  240  A    between atoms: _586  and  _587
REMARK  241  A    between atoms: _586  and  _589
REMARK  242  A    between atoms: _589  and  _590
REMARK  243  A    between atoms: _593  and  _595
REMARK  244  A    between atoms: _595  and  _596
REMARK  245  A    between atoms: _595  and  _598
REMARK  246  A    between atoms: _598  and  _599
REMARK  247  A    between atoms: _602  and  _604
REMARK  248  A    between atoms: _604  and  _605
REMARK  249  A    between atoms: _607  and  _609
REMARK  250  A    between atoms: _609  and  _610
REMARK  251  A    between atoms: _609  and  _612
REMARK  252  A    between atoms: _612  and  _613
REMARK  253  A    between atoms: _615  and  _617
REMARK  254  A    between atoms: _617  and  _618
REMARK  255  A    between atoms: _617  and  _620
REMARK  256  A    between atoms: _620  and  _621
REMARK  257  A    between atoms: _631  and  _633
REMARK  258  A    between atoms: _633  and  _634
REMARK  259  A    between atoms: _633  and  _636
REMARK  260  A    between atoms: _636  and  _637
REMARK  261  A    between atoms: _639  and  _641
REMARK  262  A    between atoms: _641  and  _642
REMARK  263  A    between atoms: _641  and  _644
REMARK  264  A    between atoms: _644  and  _645
REMARK  265  A    between atoms: _648  and  _650
REMARK  266  A    between atoms: _650  and  _651
REMARK  267  A    between atoms: _654  and  _656
REMARK  268  A    between atoms: _656  and  _657
REMARK  269  A    between atoms: _656  and  _659
REMARK  270  A    between atoms: _659  and  _660
REMARK  271  A    between atoms: _662  and  _664
REMARK  272  A    between atoms: _664  and  _665
REMARK  273  A    between atoms: _664  and  _667
REMARK  274  A    between atoms: _667  and  _668
REMARK  275  A    between atoms: _668  and  _669
REMARK  276  A    between atoms: _673  and  _674
REMARK  277  A    between atoms: _679  and  _681
REMARK  278  A    between atoms: _681  and  _682
REMARK  279  A    between atoms: _681  and  _684
REMARK  280  A    between atoms: _684  and  _685
REMARK  281  A    between atoms: _687  and  _689
REMARK  282  A    between atoms: _689  and  _690
REMARK  283  A    between atoms: _689  and  _692
REMARK  284  A    between atoms: _692  and  _693
REMARK  285  A    between atoms: _693  and  _694
REMARK  286  A    between atoms: _699  and  _701
REMARK  287  A    between atoms: _701  and  _702
REMARK  288  A    between atoms: _701  and  _704
REMARK  289  A    between atoms: _704  and  _705
REMARK  290  A    between atoms: _705  and  _706
REMARK  291  A    between atoms: _711  and  _713
REMARK  292  A    between atoms: _713  and  _714
REMARK  293  A    between atoms: _713  and  _716
REMARK  294  A    between atoms: _716  and  _717
REMARK  295  A    between atoms: _720  and  _722
REMARK  296  A    between atoms: _722  and  _723
REMARK  297  A    between atoms: _722  and  _725
REMARK  298  A    between atoms: _725  and  _726
REMARK  299  A    between atoms: _729  and  _731
REMARK  300  A    between atoms: _731  and  _732
REMARK  301  A    between atoms: _731  and  _734
REMARK  302  A    between atoms: _734  and  _735
REMARK  303  A    between atoms: _741  and  _743
REMARK  304  A    between atoms: _743  and  _744
REMARK  305  A    between atoms: _743  and  _746
REMARK  306  A    between atoms: _746  and  _747
REMARK  307  A    between atoms: _752  and  _753
REMARK  308  A    between atoms: _755  and  _757
REMARK  309  A    between atoms: _757  and  _758
REMARK  310  A    between atoms: _757  and  _760
REMARK  311  A    between atoms: _760  and  _761
REMARK  312  A    between atoms: _767  and  _769
REMARK  313  A    between atoms: _769  and  _770
REMARK  314  A    between atoms: _769  and  _772
REMARK  315  A    between atoms: _772  and  _773
REMARK  316  A    between atoms: _778  and  _780
REMARK  317  A    between atoms: _780  and  _781
REMARK  318  A    between atoms: _780  and  _783
REMARK  319  A    between atoms: _783  and  _784
REMARK  320  A    between atoms: _784  and  _785
REMARK                            x       y       z     vdW  Elec       q    Type
REMARK                         _______ _______ _______ _____ _____    ______ ____
ROOT
ATOM      1  C   TYR A   2       6.779  43.067  30.236  0.00  0.00    +0.241 C 
ATOM      2  N   ILE A   3       6.741  44.247  30.854  0.00  0.00    -0.297 N 
ATOM      3  H   ILE A   3       7.056  45.095  30.342  0.00  0.00    +0.150 HD
ATOM      4  O   TYR A   2       6.593  42.010  30.771  0.00  0.00    -0.273 OA
ENDROOT
BRANCH   2   5
ATOM      5  CA  ILE A   3       6.269  44.384  32.232  0.00  0.00    +0.149 C 
BRANCH   5   6
ATOM      6  C   ILE A   3       5.599  45.723  32.340  0.00  0.00    +0.241 C 
ATOM      7  N   SER A   4       4.483  45.723  33.049  0.00  0.00    -0.295 N 
ATOM      8  H   SER A   4       3.996  44.820  33.222  0.00  0.00    +0.150 HD
ATOM      9  O   ILE A   3       6.054  46.737  31.810  0.00  0.00    -0.273 OA
BRANCH   7  10
ATOM     10  CA  SER A   4       3.906  46.965  33.604  0.00  0.00    +0.178 C 
BRANCH  10  11
ATOM     11  C   SER A   4       4.060  46.984  35.136  0.00  0.00    +0.243 C 
ATOM     12  O   SER A   4       4.070  45.985  35.741  0.00  0.00    -0.273 OA
ATOM     13  N   LEU A   5       4.149  48.188  35.669  0.00  0.00    -0.298 N 
ATOM     14  H   LEU A   5       3.989  49.020  35.065  0.00  0.00    +0.150 HD
BRANCH  13  15
ATOM     15  CA  LEU A   5       4.464  48.388  37.075  0.00  0.00    +0.137 C 
BRANCH  15  16
ATOM     16  C   LEU A   5       4.027  49.755  37.528  0.00  0.00    +0.227 C 
ATOM     17  O   LEU A   5       3.933  50.661  36.796  0.00  0.00    -0.286 OA
ENDBRANCH  15  16
BRANCH  15  18
ATOM     18  CB  LEU A   5       5.973  48.147  37.368  0.00  0.00    +0.028 C 
BRANCH  18  19
ATOM     19  CG  LEU A   5       6.902  49.244  36.850  0.00  0.00    +0.002 C 
ATOM     20  CD2 LEU A   5       8.285  48.958  37.459  0.00  0.00    +0.000 C 
ATOM     21  CD1 LEU A   5       6.993  49.275  35.275  0.00  0.00    +0.000 C 
ENDBRANCH  18  19
ENDBRANCH  15  18
ENDBRANCH  13  15
ENDBRANCH  10  11
BRANCH  10  22
ATOM     22  CB  SER A   4       2.463  47.229  33.174  0.00  0.00    +0.166 C 
BRANCH  22  23
ATOM     23  OG  SER A   4       1.613  46.177  33.675  0.00  0.00    -0.380 OA
ATOM     24  H   SER A   4       0.679  46.348  33.396  0.00  0.00    +0.211 HD
ENDBRANCH  22  23
ENDBRANCH  10  22
ENDBRANCH   7  10
ENDBRANCH   5   6
BRANCH   5  25
ATOM     25  CB  ILE A   3       7.452  44.273  33.279  0.00  0.00    +0.027 C 
ATOM     26  CG2 ILE A   3       8.534  45.381  33.117  0.00  0.00    +0.002 C 
BRANCH  25  27
ATOM     27  CG1 ILE A   3       6.993  44.299  34.748  0.00  0.00    +0.002 C 
ATOM     28  CD1 ILE A   3       6.173  43.132  35.110  0.00  0.00    +0.000 C 
ENDBRANCH  25  27
ENDBRANCH   5  25
ENDBRANCH   2   5
BRANCH   1  29
ATOM     29  CA  TYR A   2       6.977  43.167  28.741  0.00  0.00    +0.153 C 
BRANCH  29  31
ATOM     30  C   MET A   1       8.540  42.107  27.127  0.00  0.00    +0.238 C 
ATOM     31  N   TYR A   2       7.756  42.010  28.207  0.00  0.00    -0.297 N 
ATOM     32  H   TYR A   2       7.686  41.093  28.693  0.00  0.00    +0.150 HD
ATOM     33  O   MET A   1       8.818  43.143  26.588  0.00  0.00    -0.274 OA
BRANCH  30  34
ATOM     34  CA  MET A   1       8.874  40.753  26.468  0.00  0.00    +0.146 C 
BRANCH  34  35
ATOM     35  N   MET A   1       7.712  40.470  25.643  0.00  0.00    -0.238 NA
ATOM     36  H   MET A   1       7.677  40.768  24.647  0.00  0.00    +0.142 HD
ENDBRANCH  34  35
BRANCH  34  37
ATOM     37  CB  MET A   1      10.103  40.843  25.596  0.00  0.00    +0.038 C 
BRANCH  37  38
ATOM     38  CG  MET A   1      11.325  40.362  26.342  0.00  0.00    +0.060 C 
BRANCH  38  39
ATOM     39  SD  MET A   1      12.405  39.559  25.143  0.00  0.00    -0.139 S 
ATOM     40  CE  MET A   1      12.444  40.894  24.087  0.00  0.00    +0.069 C 
ENDBRANCH  38  39
ENDBRANCH  37  38
ENDBRANCH  34  37
ENDBRANCH  30  34
ENDBRANCH  29  31
BRANCH  29  41
ATOM     41  CB  TYR A   2       5.585  43.170  28.053  0.00  0.00    +0.055 C 
BRANCH  41  42
ATOM     42  CG  TYR A   2       4.550  44.213  28.530  0.00  0.00    -0.020 A 
ATOM     43  CD2 TYR A   2       3.725  43.955  29.615  0.00  0.00    -0.001 A 
ATOM     44  CE2 TYR A   2       2.781  44.832  30.024  0.00  0.00    +0.036 A 
ATOM     45  CZ  TYR A   2       2.631  46.001  29.357  0.00  0.00    +0.134 A 
ATOM     46  CE1 TYR A   2       3.400  46.310  28.292  0.00  0.00    +0.036 A 
ATOM     47  CD1 TYR A   2       4.402  45.405  27.884  0.00  0.00    -0.001 A 
BRANCH  45  48
ATOM     48  OH  TYR A   2       1.669  46.891  29.737  0.00  0.00    -0.506 OA
ATOM     49  HH  TYR A   2       1.702  47.683  29.144  0.00  0.00    +0.292 HD
ENDBRANCH  45  48
ENDBRANCH  41  42
ENDBRANCH  29  41
ENDBRANCH   1  29
TORSDOF 22
REMARK  Name = ../refined-set-2016/3drf/3drf_pocket.pdb
REMARK  320 active torsions:
REMARK  status: ('A' for Active; 'I' for Inactive)
REMARK    1  A    between atoms: _1  and  _3
REMARK    2  A    between atoms: _3  and  _4
REMARK    3  A    between atoms: _3  and  _6
REMARK    4  A    between atoms: _6  and  _7
REMARK    5  A    between atoms: _12  and  _13
REMARK    6  A    between atoms: _15  and  _17
REMARK    7  A    between atoms: _17  and  _18
REMARK    8  A    between atoms: _17  and  _20
REMARK    9  A    between atoms: _20  and  _21
REMARK   10  A    between atoms: _21  and  _22
REMARK   11  A    between atoms: _27  and  _29
REMARK   12  A    between atoms: _29  and  _30
REMARK   13  A    between atoms: _29  and  _32
REMARK   14  A    between atoms: _32  and  _33
REMARK   15  A    between atoms: _35  and  _37
REMARK   16  A    between atoms: _37  and  _38
REMARK   17  A    between atoms: _37  and  _40
REMARK   18  A    between atoms: _40  and  _41
REMARK   19  A    between atoms: _44  and  _46
REMARK   20  A    between atoms: _46  and  _47
REMARK   21  A    between atoms: _46  and  _49
REMARK   22  A    between atoms: _49  and  _50
REMARK   23  A    between atoms: _52  and  _54
REMARK   24  A    between atoms: _54  and  _55
REMARK   25  A    between atoms: _54  and  _57
REMARK   26  A    between atoms: _57  and  _58
REMARK   27  A    between atoms: _60  and  _62
REMARK   28  A    between atoms: _62  and  _63
REMARK   29  A    between atoms: _65  and  _67
REMARK   30  A    between atoms: _67  and  _68
REMARK   31  A    between atoms: _67  and  _70
REMARK   32  A    between atoms: _70  and  _71
REMARK   33  A    between atoms: _73  and  _75
REMARK   34  A    between atoms: _75  and  _76
REMARK   35  A    between atoms: _75  and  _78
REMARK   36  A    between atoms: _78  and  _79
REMARK   37  A    between atoms: _84  and  _86
REMARK   38  A    between atoms: _86  and  _87
REMARK   39  A    between atoms: _86  and  _89
REMARK   40  A    between atoms: _89  and  _90
REMARK   41  A    between atoms: _93  and  _95
REMARK   42  A    between atoms: _95  and  _96
REMARK   43  A    between atoms: _99  and  _101
REMARK   44  A    between atoms: _101  and  _102
REMARK   45  A    between atoms: _101  and  _104
REMARK   46  A    between atoms: _104  and  _105
REMARK   47  A    between atoms: _108  and  _110
REMARK   48  A    between atoms: _110  and  _111
REMARK   49  A    between atoms: _110  and  _113
REMARK   50  A    between atoms: _113  and  _114
REMARK   51  A    between atoms: _120  and  _122
REMARK   52  A    between atoms: _122  and  _123
REMARK   53  A    between atoms: _126  and  _128
REMARK   54  A    between atoms: _128  and  _129
REMARK   55  A    between atoms: _128  and  _131
REMARK   56  A    between atoms: _131  and  _132
REMARK   57  A    between atoms: _135  and  _137
REMARK   58  A    between atoms: _137  and  _138
REMARK   59  A    between atoms: _140  and  _142
REMARK   60  A    between atoms: _142  and  _143
REMARK   61  A    between atoms: _142  and  _145
REMARK   62  A    between atoms: _145  and  _146
REMARK   63  A    between atoms: _146  and  _147
REMARK   64  A    between atoms: _152  and  _154
REMARK   65  A    between atoms: _154  and  _155
REMARK   66  A    between atoms: _157  and  _159
REMARK   67  A    between atoms: _159  and  _160
REMARK   68  A    between atoms: _159  and  _162
REMARK   69  A    between atoms: _162  and  _163
REMARK   70  A    between atoms: _166  and  _168
REMARK   71  A    between atoms: _168  and  _169
REMARK   72  A    between atoms: _168  and  _171
REMARK   73  A    between atoms: _171  and  _172
REMARK   74  A    between atoms: _178  and  _180
REMARK   75  A    between atoms: _180  and  _181
REMARK   76  A    between atoms: _180  and  _183
REMARK   77  A    between atoms: _183  and  _184
REMARK   78  A    between atoms: _187  and  _189
REMARK   79  A    between atoms: _189  and  _190
REMARK   80  A    between atoms: _189  and  _192
REMARK   81  A    between atoms: _192  and  _193
REMARK   82  A    between atoms: _199  and  _201
REMARK   83  A    between atoms: _201  and  _202
REMARK   84  A    between atoms: _201  and  _204
REMARK   85  A    between atoms: _204  and  _205
REMARK   86  A    between atoms: _211  and  _213
REMARK   87  A    between atoms: _213  and  _214
REMARK   88  A    between atoms: _213  and  _216
REMARK   89  A    between atoms: _216  and  _217
REMARK   90  A    between atoms: _220  and  _222
REMARK   91  A    between atoms: _222  and  _223
REMARK   92  A    between atoms: _222  and  _225
REMARK   93  A    between atoms: _225  and  _226
REMARK   94  A    between atoms: _229  and  _231
REMARK   95  A    between atoms: _231  and  _232
REMARK   96  A    between atoms: _231  and  _234
REMARK   97  A    between atoms: _234  and  _235
REMARK   98  A    between atoms: _235  and  _236
REMARK   99  A    between atoms: _236  and  _237
REMARK  100  A    between atoms: _246  and  _248
REMARK  101  A    between atoms: _248  and  _249
REMARK  102  A    between atoms: _248  and  _251
REMARK  103  A    between atoms: _251  and  _252
REMARK  104  A    between atoms: _255  and  _257
REMARK  105  A    between atoms: _257  and  _258
REMARK  106  A    between atoms: _257  and  _260
REMARK  107  A    between atoms: _260  and  _261
REMARK  108  A    between atoms: _263  and  _265
REMARK  109  A    between atoms: _265  and  _266
REMARK  110  A    between atoms: _265  and  _268
REMARK  111  A    between atoms: _268  and  _269
REMARK  112  A    between atoms: _269  and  _270
REMARK  113  A    between atoms: _275  and  _277
REMARK  114  A    between atoms: _277  and  _278
REMARK  115  A    between atoms: _277  and  _280
REMARK  116  A    between atoms: _280  and  _281
REMARK  117  A    between atoms: _283  and  _285
REMARK  118  A    between atoms: _285  and  _286
REMARK  119  A    between atoms: _288  and  _290
REMARK  120  A    between atoms: _290  and  _291
REMARK  121  A    between atoms: _290  and  _293
REMARK  122  A    between atoms: _293  and  _294
REMARK  123  A    between atoms: _299  and  _301
REMARK  124  A    between atoms: _301  and  _302
REMARK  125  A    between atoms: _304  and  _306
REMARK  126  A    between atoms: _306  and  _307
REMARK  127  A    between atoms: _306  and  _309
REMARK  128  A    between atoms: _309  and  _310
REMARK  129  A    between atoms: _315  and  _316
REMARK  130  A    between atoms: _318  and  _320
REMARK  131  A    between atoms: _320  and  _321
REMARK  132  A    between atoms: _320  and  _323
REMARK  133  A    between atoms: _323  and  _324
REMARK  134  A    between atoms: _330  and  _332
REMARK  135  A    between atoms: _332  and  _333
REMARK  136  A    between atoms: _332  and  _335
REMARK  137  A    between atoms: _335  and  _336
REMARK  138  A    between atoms: _339  and  _341
REMARK  139  A    between atoms: _341  and  _342
REMARK  140  A    between atoms: _341  and  _344
REMARK  141  A    between atoms: _344  and  _345
REMARK  142  A    between atoms: _345  and  _346
REMARK  143  A    between atoms: _349  and  _351
REMARK  144  A    between atoms: _351  and  _352
REMARK  145  A    between atoms: _351  and  _354
REMARK  146  A    between atoms: _354  and  _355
REMARK  147  A    between atoms: _358  and  _360
REMARK  148  A    between atoms: _360  and  _361
REMARK  149  A    between atoms: _360  and  _363
REMARK  150  A    between atoms: _363  and  _364
REMARK  151  A    between atoms: _367  and  _369
REMARK  152  A    between atoms: _369  and  _370
REMARK  153  A    between atoms: _372  and  _374
REMARK  154  A    between atoms: _374  and  _375
REMARK  155  A    between atoms: _374  and  _377
REMARK  156  A    between atoms: _380  and  _382
REMARK  157  A    between atoms: _382  and  _383
REMARK  158  A    between atoms: _382  and  _385
REMARK  159  A    between atoms: _385  and  _386
REMARK  160  A    between atoms: _388  and  _390
REMARK  161  A    between atoms: _390  and  _391
REMARK  162  A    between atoms: _390  and  _393
REMARK  163  A    between atoms: _393  and  _394
REMARK  164  A    between atoms: _394  and  _395
REMARK  165  A    between atoms: _397  and  _399
REMARK  166  A    between atoms: _399  and  _400
REMARK  167  A    between atoms: _399  and  _402
REMARK  168  A    between atoms: _402  and  _403
REMARK  169  A    between atoms: _408  and  _409
REMARK  170  A    between atoms: _411  and  _413
REMARK  171  A    between atoms: _413  and  _414
REMARK  172  A    between atoms: _413  and  _416
REMARK  173  A    between atoms: _416  and  _417
REMARK  174  A    between atoms: _420  and  _422
REMARK  175  A    between atoms: _422  and  _423
REMARK  176  A    between atoms: _422  and  _425
REMARK  177  A    between atoms: _425  and  _426
REMARK  178  A    between atoms: _428  and  _430
REMARK  179  A    between atoms: _430  and  _431
REMARK  180  A    between atoms: _430  and  _433
REMARK  181  A    between atoms: _433  and  _434
REMARK  182  A    between atoms: _437  and  _439
REMARK  183  A    between atoms: _439  and  _440
REMARK  184  A    between atoms: _439  and  _442
REMARK  185  A    between atoms: _442  and  _443
REMARK  186  A    between atoms: _448  and  _449
REMARK  187  A    between atoms: _451  and  _453
REMARK  188  A    between atoms: _453  and  _454
REMARK  189  A    between atoms: _453  and  _456
REMARK  190  A    between atoms: _456  and  _457
REMARK  191  A    between atoms: _459  and  _461
REMARK  192  A    between atoms: _461  and  _462
REMARK  193  A    between atoms: _461  and  _464
REMARK  194  A    between atoms: _464  and  _465
REMARK  195  A    between atoms: _471  and  _473
REMARK  196  A    between atoms: _473  and  _474
REMARK  197  A    between atoms: _473  and  _476
REMARK  198  A    between atoms: _476  and  _477
REMARK  199  A    between atoms: _477  and  _478
REMARK  200  A    between atoms: _478  and  _479
REMARK  201  A    between atoms: _488  and  _490
REMARK  202  A    between atoms: _490  and  _491
REMARK  203  A    between atoms: _490  and  _493
REMARK  204  A    between atoms: _496  and  _498
REMARK  205  A    between atoms: _498  and  _499
REMARK  206  A    between atoms: _501  and  _503
REMARK  207  A    between atoms: _503  and  _504
REMARK  208  A    between atoms: _503  and  _506
REMARK  209  A    between atoms: _506  and  _507
REMARK  210  A    between atoms: _510  and  _512
REMARK  211  A    between atoms: _512  and  _513
REMARK  212  A    between atoms: _512  and  _515
REMARK  213  A    between atoms: _515  and  _516
REMARK  214  A    between atoms: _516  and  _517
REMARK  215  A    between atoms: _519  and  _521
REMARK  216  A    between atoms: _521  and  _522
REMARK  217  A    between atoms: _521  and  _524
REMARK  218  A    between atoms: _524  and  _525
REMARK  219  A    between atoms: _531  and  _533
REMARK  220  A    between atoms: _533  and  _534
REMARK  221  A    between atoms: _533  and  _536
REMARK  222  A    between atoms: _536  and  _537
REMARK  223  A    between atoms: _542  and  _544
REMARK  224  A    between atoms: _544  and  _545
REMARK  225  A    between atoms: _544  and  _547
REMARK  226  A    between atoms: _547  and  _548
REMARK  227  A    between atoms: _558  and  _560
REMARK  228  A    between atoms: _560  and  _561
REMARK  229  A    between atoms: _560  and  _563
REMARK  230  A    between atoms: _566  and  _568
REMARK  231  A    between atoms: _568  and  _569
REMARK  232  A    between atoms: _568  and  _571
REMARK  233  A    between atoms: _571  and  _572
REMARK  234  A    between atoms: _575  and  _577
REMARK  235  A    between atoms: _577  and  _578
REMARK  236  A    between atoms: _577  and  _580
REMARK  237  A    between atoms: _580  and  _581
REMARK  238  A    between atoms: _581  and  _582
REMARK  239  A    between atoms: _584  and  _586
REMARK  240  A    between atoms: _586  and  _587
REMARK  241  A    between atoms: _586  and  _589
REMARK  242  A    between atoms: _589  and  _590
REMARK  243  A    between atoms: _593  and  _595
REMARK  244  A    between atoms: _595  and  _596
REMARK  245  A    between atoms: _595  and  _598
REMARK  246  A    between atoms: _598  and  _599
REMARK  247  A    between atoms: _602  and  _604
REMARK  248  A    between atoms: _604  and  _605
REMARK  249  A    between atoms: _607  and  _609
REMARK  250  A    between atoms: _609  and  _610
REMARK  251  A    between atoms: _609  and  _612
REMARK  252  A    between atoms: _612  and  _613
REMARK  253  A    between atoms: _615  and  _617
REMARK  254  A    between atoms: _617  and  _618
REMARK  255  A    between atoms: _617  and  _620
REMARK  256  A    between atoms: _620  and  _621
REMARK  257  A    between atoms: _631  and  _633
REMARK  258  A    between atoms: _633  and  _634
REMARK  259  A    between atoms: _633  and  _636
REMARK  260  A    between atoms: _636  and  _637
REMARK  261  A    between atoms: _639  and  _641
REMARK  262  A    between atoms: _641  and  _642
REMARK  263  A    between atoms: _641  and  _644
REMARK  264  A    between atoms: _644  and  _645
REMARK  265  A    between atoms: _648  and  _650
REMARK  266  A    between atoms: _650  and  _651
REMARK  267  A    between atoms: _654  and  _656
REMARK  268  A    between atoms: _656  and  _657
REMARK  269  A    between atoms: _656  and  _659
REMARK  270  A    between atoms: _659  and  _660
REMARK  271  A    between atoms: _662  and  _664
REMARK  272  A    between atoms: _664  and  _665
REMARK  273  A    between atoms: _664  and  _667
REMARK  274  A    between atoms: _667  and  _668
REMARK  275  A    between atoms: _668  and  _669
REMARK  276  A    between atoms: _673  and  _674
REMARK  277  A    between atoms: _679  and  _681
REMARK  278  A    between atoms: _681  and  _682
REMARK  279  A    between atoms: _681  and  _684
REMARK  280  A    between atoms: _684  and  _685
REMARK  281  A    between atoms: _687  and  _689
REMARK  282  A    between atoms: _689  and  _690
REMARK  283  A    between atoms: _689  and  _692
REMARK  284  A    between atoms: _692  and  _693
REMARK  285  A    between atoms: _693  and  _694
REMARK  286  A    between atoms: _699  and  _701
REMARK  287  A    between atoms: _701  and  _702
REMARK  288  A    between atoms: _701  and  _704
REMARK  289  A    between atoms: _704  and  _705
REMARK  290  A    between atoms: _705  and  _706
REMARK  291  A    between atoms: _711  and  _713
REMARK  292  A    between atoms: _713  and  _714
REMARK  293  A    between atoms: _713  and  _716
REMARK  294  A    between atoms: _716  and  _717
REMARK  295  A    between atoms: _720  and  _722
REMARK  296  A    between atoms: _722  and  _723
REMARK  297  A    between atoms: _722  and  _725
REMARK  298  A    between atoms: _725  and  _726
REMARK  299  A    between atoms: _729  and  _731
REMARK  300  A    between atoms: _731  and  _732
REMARK  301  A    between atoms: _731  and  _734
REMARK  302  A    between atoms: _734  and  _735
REMARK  303  A    between atoms: _741  and  _743
REMARK  304  A    between atoms: _743  and  _744
REMARK  305  A    between atoms: _743  and  _746
REMARK  306  A    between atoms: _746  and  _747
REMARK  307  A    between atoms: _752  and  _753
REMARK  308  A    between atoms: _755  and  _757
REMARK  309  A    between atoms: _757  and  _758
REMARK  310  A    between atoms: _757  and  _760
REMARK  311  A    between atoms: _760  and  _761
REMARK  312  A    between atoms: _767  and  _769
REMARK  313  A    between atoms: _769  and  _770
REMARK  314  A    between atoms: _769  and  _772
REMARK  315  A    between atoms: _772  and  _773
REMARK  316  A    between atoms: _778  and  _780
REMARK  317  A    between atoms: _780  and  _781
REMARK  318  A    between atoms: _780  and  _783
REMARK  319  A    between atoms: _783  and  _784
REMARK  320  A    between atoms: _784  and  _785
REMARK                            x       y       z     vdW  Elec       q    Type
REMARK                         _______ _______ _______ _____ _____    ______ ____
ROOT
ATOM      1  CG  TYR A   1       7.510  53.790  38.346  0.00  0.00    -0.020 A 
ATOM      2  CD2 TYR A   1       8.911  53.657  38.524  0.00  0.00    -0.001 A 
ATOM      3  CE2 TYR A   1       9.724  53.012  37.601  0.00  0.00    +0.036 A 
ATOM      4  CZ  TYR A   1       9.135  52.486  36.487  0.00  0.00    +0.134 A 
ATOM      5  CE1 TYR A   1       7.779  52.580  36.283  0.00  0.00    +0.036 A 
ATOM      6  CD1 TYR A   1       6.963  53.222  37.222  0.00  0.00    -0.001 A 
ENDROOT
BRANCH   4   7
ATOM      7  OH  TYR A   1       9.885  51.809  35.546  0.00  0.00    -0.506 OA
ATOM      8  HH  TYR A   1      10.837  51.818  35.816  0.00  0.00    +0.292 HD
ENDBRANCH   4   7
BRANCH   1   9
ATOM      9  CB  TYR A   1       6.644  54.524  39.369  0.00  0.00    +0.051 C 
BRANCH   9  10
ATOM     10  CA  TYR A   1       6.024  53.614  40.455  0.00  0.00    +0.137 C 
BRANCH  10  11
ATOM     11  N   TYR A   1       4.891  52.876  39.894  0.00  0.00    -0.239 NA
ATOM     12  H   TYR A   1       4.261  53.382  39.239  0.00  0.00    +0.142 HD
ENDBRANCH  10  11
BRANCH  10  13
ATOM     13  C   TYR A   1       5.592  54.562  41.554  0.00  0.00    +0.224 C 
ATOM     14  O   TYR A   1       4.561  55.196  41.442  0.00  0.00    -0.287 OA
ENDBRANCH  10  13
ENDBRANCH   9  10
ENDBRANCH   1   9
TORSDOF 5
REMARK  Name = ../refined-set-2016/3drf/3drf_pocket.pdb
REMARK  320 active torsions:
REMARK  status: ('A' for Active; 'I' for Inactive)
REMARK    1  A    between atoms: _1  and  _3
REMARK    2  A    between atoms: _3  and  _4
REMARK    3  A    between atoms: _3  and  _6
REMARK    4  A    between atoms: _6  and  _7
REMARK    5  A    between atoms: _12  and  _13
REMARK    6  A    between atoms: _15  and  _17
REMARK    7  A    between atoms: _17  and  _18
REMARK    8  A    between atoms: _17  and  _20
REMARK    9  A    between atoms: _20  and  _21
REMARK   10  A    between atoms: _21  and  _22
REMARK   11  A    between atoms: _27  and  _29
REMARK   12  A    between atoms: _29  and  _30
REMARK   13  A    between atoms: _29  and  _32
REMARK   14  A    between atoms: _32  and  _33
REMARK   15  A    between atoms: _35  and  _37
REMARK   16  A    between atoms: _37  and  _38
REMARK   17  A    between atoms: _37  and  _40
REMARK   18  A    between atoms: _40  and  _41
REMARK   19  A    between atoms: _44  and  _46
REMARK   20  A    between atoms: _46  and  _47
REMARK   21  A    between atoms: _46  and  _49
REMARK   22  A    between atoms: _49  and  _50
REMARK   23  A    between atoms: _52  and  _54
REMARK   24  A    between atoms: _54  and  _55
REMARK   25  A    between atoms: _54  and  _57
REMARK   26  A    between atoms: _57  and  _58
REMARK   27  A    between atoms: _60  and  _62
REMARK   28  A    between atoms: _62  and  _63
REMARK   29  A    between atoms: _65  and  _67
REMARK   30  A    between atoms: _67  and  _68
REMARK   31  A    between atoms: _67  and  _70
REMARK   32  A    between atoms: _70  and  _71
REMARK   33  A    between atoms: _73  and  _75
REMARK   34  A    between atoms: _75  and  _76
REMARK   35  A    between atoms: _75  and  _78
REMARK   36  A    between atoms: _78  and  _79
REMARK   37  A    between atoms: _84  and  _86
REMARK   38  A    between atoms: _86  and  _87
REMARK   39  A    between atoms: _86  and  _89
REMARK   40  A    between atoms: _89  and  _90
REMARK   41  A    between atoms: _93  and  _95
REMARK   42  A    between atoms: _95  and  _96
REMARK   43  A    between atoms: _99  and  _101
REMARK   44  A    between atoms: _101  and  _102
REMARK   45  A    between atoms: _101  and  _104
REMARK   46  A    between atoms: _104  and  _105
REMARK   47  A    between atoms: _108  and  _110
REMARK   48  A    between atoms: _110  and  _111
REMARK   49  A    between atoms: _110  and  _113
REMARK   50  A    between atoms: _113  and  _114
REMARK   51  A    between atoms: _120  and  _122
REMARK   52  A    between atoms: _122  and  _123
REMARK   53  A    between atoms: _126  and  _128
REMARK   54  A    between atoms: _128  and  _129
REMARK   55  A    between atoms: _128  and  _131
REMARK   56  A    between atoms: _131  and  _132
REMARK   57  A    between atoms: _135  and  _137
REMARK   58  A    between atoms: _137  and  _138
REMARK   59  A    between atoms: _140  and  _142
REMARK   60  A    between atoms: _142  and  _143
REMARK   61  A    between atoms: _142  and  _145
REMARK   62  A    between atoms: _145  and  _146
REMARK   63  A    between atoms: _146  and  _147
REMARK   64  A    between atoms: _152  and  _154
REMARK   65  A    between atoms: _154  and  _155
REMARK   66  A    between atoms: _157  and  _159
REMARK   67  A    between atoms: _159  and  _160
REMARK   68  A    between atoms: _159  and  _162
REMARK   69  A    between atoms: _162  and  _163
REMARK   70  A    between atoms: _166  and  _168
REMARK   71  A    between atoms: _168  and  _169
REMARK   72  A    between atoms: _168  and  _171
REMARK   73  A    between atoms: _171  and  _172
REMARK   74  A    between atoms: _178  and  _180
REMARK   75  A    between atoms: _180  and  _181
REMARK   76  A    between atoms: _180  and  _183
REMARK   77  A    between atoms: _183  and  _184
REMARK   78  A    between atoms: _187  and  _189
REMARK   79  A    between atoms: _189  and  _190
REMARK   80  A    between atoms: _189  and  _192
REMARK   81  A    between atoms: _192  and  _193
REMARK   82  A    between atoms: _199  and  _201
REMARK   83  A    between atoms: _201  and  _202
REMARK   84  A    between atoms: _201  and  _204
REMARK   85  A    between atoms: _204  and  _205
REMARK   86  A    between atoms: _211  and  _213
REMARK   87  A    between atoms: _213  and  _214
REMARK   88  A    between atoms: _213  and  _216
REMARK   89  A    between atoms: _216  and  _217
REMARK   90  A    between atoms: _220  and  _222
REMARK   91  A    between atoms: _222  and  _223
REMARK   92  A    between atoms: _222  and  _225
REMARK   93  A    between atoms: _225  and  _226
REMARK   94  A    between atoms: _229  and  _231
REMARK   95  A    between atoms: _231  and  _232
REMARK   96  A    between atoms: _231  and  _234
REMARK   97  A    between atoms: _234  and  _235
REMARK   98  A    between atoms: _235  and  _236
REMARK   99  A    between atoms: _236  and  _237
REMARK  100  A    between atoms: _246  and  _248
REMARK  101  A    between atoms: _248  and  _249
REMARK  102  A    between atoms: _248  and  _251
REMARK  103  A    between atoms: _251  and  _252
REMARK  104  A    between atoms: _255  and  _257
REMARK  105  A    between atoms: _257  and  _258
REMARK  106  A    between atoms: _257  and  _260
REMARK  107  A    between atoms: _260  and  _261
REMARK  108  A    between atoms: _263  and  _265
REMARK  109  A    between atoms: _265  and  _266
REMARK  110  A    between atoms: _265  and  _268
REMARK  111  A    between atoms: _268  and  _269
REMARK  112  A    between atoms: _269  and  _270
REMARK  113  A    between atoms: _275  and  _277
REMARK  114  A    between atoms: _277  and  _278
REMARK  115  A    between atoms: _277  and  _280
REMARK  116  A    between atoms: _280  and  _281
REMARK  117  A    between atoms: _283  and  _285
REMARK  118  A    between atoms: _285  and  _286
REMARK  119  A    between atoms: _288  and  _290
REMARK  120  A    between atoms: _290  and  _291
REMARK  121  A    between atoms: _290  and  _293
REMARK  122  A    between atoms: _293  and  _294
REMARK  123  A    between atoms: _299  and  _301
REMARK  124  A    between atoms: _301  and  _302
REMARK  125  A    between atoms: _304  and  _306
REMARK  126  A    between atoms: _306  and  _307
REMARK  127  A    between atoms: _306  and  _309
REMARK  128  A    between atoms: _309  and  _310
REMARK  129  A    between atoms: _315  and  _316
REMARK  130  A    between atoms: _318  and  _320
REMARK  131  A    between atoms: _320  and  _321
REMARK  132  A    between atoms: _320  and  _323
REMARK  133  A    between atoms: _323  and  _324
REMARK  134  A    between atoms: _330  and  _332
REMARK  135  A    between atoms: _332  and  _333
REMARK  136  A    between atoms: _332  and  _335
REMARK  137  A    between atoms: _335  and  _336
REMARK  138  A    between atoms: _339  and  _341
REMARK  139  A    between atoms: _341  and  _342
REMARK  140  A    between atoms: _341  and  _344
REMARK  141  A    between atoms: _344  and  _345
REMARK  142  A    between atoms: _345  and  _346
REMARK  143  A    between atoms: _349  and  _351
REMARK  144  A    between atoms: _351  and  _352
REMARK  145  A    between atoms: _351  and  _354
REMARK  146  A    between atoms: _354  and  _355
REMARK  147  A    between atoms: _358  and  _360
REMARK  148  A    between atoms: _360  and  _361
REMARK  149  A    between atoms: _360  and  _363
REMARK  150  A    between atoms: _363  and  _364
REMARK  151  A    between atoms: _367  and  _369
REMARK  152  A    between atoms: _369  and  _370
REMARK  153  A    between atoms: _372  and  _374
REMARK  154  A    between atoms: _374  and  _375
REMARK  155  A    between atoms: _374  and  _377
REMARK  156  A    between atoms: _380  and  _382
REMARK  157  A    between atoms: _382  and  _383
REMARK  158  A    between atoms: _382  and  _385
REMARK  159  A    between atoms: _385  and  _386
REMARK  160  A    between atoms: _388  and  _390
REMARK  161  A    between atoms: _390  and  _391
REMARK  162  A    between atoms: _390  and  _393
REMARK  163  A    between atoms: _393  and  _394
REMARK  164  A    between atoms: _394  and  _395
REMARK  165  A    between atoms: _397  and  _399
REMARK  166  A    between atoms: _399  and  _400
REMARK  167  A    between atoms: _399  and  _402
REMARK  168  A    between atoms: _402  and  _403
REMARK  169  A    between atoms: _408  and  _409
REMARK  170  A    between atoms: _411  and  _413
REMARK  171  A    between atoms: _413  and  _414
REMARK  172  A    between atoms: _413  and  _416
REMARK  173  A    between atoms: _416  and  _417
REMARK  174  A    between atoms: _420  and  _422
REMARK  175  A    between atoms: _422  and  _423
REMARK  176  A    between atoms: _422  and  _425
REMARK  177  A    between atoms: _425  and  _426
REMARK  178  A    between atoms: _428  and  _430
REMARK  179  A    between atoms: _430  and  _431
REMARK  180  A    between atoms: _430  and  _433
REMARK  181  A    between atoms: _433  and  _434
REMARK  182  A    between atoms: _437  and  _439
REMARK  183  A    between atoms: _439  and  _440
REMARK  184  A    between atoms: _439  and  _442
REMARK  185  A    between atoms: _442  and  _443
REMARK  186  A    between atoms: _448  and  _449
REMARK  187  A    between atoms: _451  and  _453
REMARK  188  A    between atoms: _453  and  _454
REMARK  189  A    between atoms: _453  and  _456
REMARK  190  A    between atoms: _456  and  _457
REMARK  191  A    between atoms: _459  and  _461
REMARK  192  A    between atoms: _461  and  _462
REMARK  193  A    between atoms: _461  and  _464
REMARK  194  A    between atoms: _464  and  _465
REMARK  195  A    between atoms: _471  and  _473
REMARK  196  A    between atoms: _473  and  _474
REMARK  197  A    between atoms: _473  and  _476
REMARK  198  A    between atoms: _476  and  _477
REMARK  199  A    between atoms: _477  and  _478
REMARK  200  A    between atoms: _478  and  _479
REMARK  201  A    between atoms: _488  and  _490
REMARK  202  A    between atoms: _490  and  _491
REMARK  203  A    between atoms: _490  and  _493
REMARK  204  A    between atoms: _496  and  _498
REMARK  205  A    between atoms: _498  and  _499
REMARK  206  A    between atoms: _501  and  _503
REMARK  207  A    between atoms: _503  and  _504
REMARK  208  A    between atoms: _503  and  _506
REMARK  209  A    between atoms: _506  and  _507
REMARK  210  A    between atoms: _510  and  _512
REMARK  211  A    between atoms: _512  and  _513
REMARK  212  A    between atoms: _512  and  _515
REMARK  213  A    between atoms: _515  and  _516
REMARK  214  A    between atoms: _516  and  _517
REMARK  215  A    between atoms: _519  and  _521
REMARK  216  A    between atoms: _521  and  _522
REMARK  217  A    between atoms: _521  and  _524
REMARK  218  A    between atoms: _524  and  _525
REMARK  219  A    between atoms: _531  and  _533
REMARK  220  A    between atoms: _533  and  _534
REMARK  221  A    between atoms: _533  and  _536
REMARK  222  A    between atoms: _536  and  _537
REMARK  223  A    between atoms: _542  and  _544
REMARK  224  A    between atoms: _544  and  _545
REMARK  225  A    between atoms: _544  and  _547
REMARK  226  A    between atoms: _547  and  _548
REMARK  227  A    between atoms: _558  and  _560
REMARK  228  A    between atoms: _560  and  _561
REMARK  229  A    between atoms: _560  and  _563
REMARK  230  A    between atoms: _566  and  _568
REMARK  231  A    between atoms: _568  and  _569
REMARK  232  A    between atoms: _568  and  _571
REMARK  233  A    between atoms: _571  and  _572
REMARK  234  A    between atoms: _575  and  _577
REMARK  235  A    between atoms: _577  and  _578
REMARK  236  A    between atoms: _577  and  _580
REMARK  237  A    between atoms: _580  and  _581
REMARK  238  A    between atoms: _581  and  _582
REMARK  239  A    between atoms: _584  and  _586
REMARK  240  A    between atoms: _586  and  _587
REMARK  241  A    between atoms: _586  and  _589
REMARK  242  A    between atoms: _589  and  _590
REMARK  243  A    between atoms: _593  and  _595
REMARK  244  A    between atoms: _595  and  _596
REMARK  245  A    between atoms: _595  and  _598
REMARK  246  A    between atoms: _598  and  _599
REMARK  247  A    between atoms: _602  and  _604
REMARK  248  A    between atoms: _604  and  _605
REMARK  249  A    between atoms: _607  and  _609
REMARK  250  A    between atoms: _609  and  _610
REMARK  251  A    between atoms: _609  and  _612
REMARK  252  A    between atoms: _612  and  _613
REMARK  253  A    between atoms: _615  and  _617
REMARK  254  A    between atoms: _617  and  _618
REMARK  255  A    between atoms: _617  and  _620
REMARK  256  A    between atoms: _620  and  _621
REMARK  257  A    between atoms: _631  and  _633
REMARK  258  A    between atoms: _633  and  _634
REMARK  259  A    between atoms: _633  and  _636
REMARK  260  A    between atoms: _636  and  _637
REMARK  261  A    between atoms: _639  and  _641
REMARK  262  A    between atoms: _641  and  _642
REMARK  263  A    between atoms: _641  and  _644
REMARK  264  A    between atoms: _644  and  _645
REMARK  265  A    between atoms: _648  and  _650
REMARK  266  A    between atoms: _650  and  _651
REMARK  267  A    between atoms: _654  and  _656
REMARK  268  A    between atoms: _656  and  _657
REMARK  269  A    between atoms: _656  and  _659
REMARK  270  A    between atoms: _659  and  _660
REMARK  271  A    between atoms: _662  and  _664
REMARK  272  A    between atoms: _664  and  _665
REMARK  273  A    between atoms: _664  and  _667
REMARK  274  A    between atoms: _667  and  _668
REMARK  275  A    between atoms: _668  and  _669
REMARK  276  A    between atoms: _673  and  _674
REMARK  277  A    between atoms: _679  and  _681
REMARK  278  A    between atoms: _681  and  _682
REMARK  279  A    between atoms: _681  and  _684
REMARK  280  A    between atoms: _684  and  _685
REMARK  281  A    between atoms: _687  and  _689
REMARK  282  A    between atoms: _689  and  _690
REMARK  283  A    between atoms: _689  and  _692
REMARK  284  A    between atoms: _692  and  _693
REMARK  285  A    between atoms: _693  and  _694
REMARK  286  A    between atoms: _699  and  _701
REMARK  287  A    between atoms: _701  and  _702
REMARK  288  A    between atoms: _701  and  _704
REMARK  289  A    between atoms: _704  and  _705
REMARK  290  A    between atoms: _705  and  _706
REMARK  291  A    between atoms: _711  and  _713
REMARK  292  A    between atoms: _713  and  _714
REMARK  293  A    between atoms: _713  and  _716
REMARK  294  A    between atoms: _716  and  _717
REMARK  295  A    between atoms: _720  and  _722
REMARK  296  A    between atoms: _722  and  _723
REMARK  297  A    between atoms: _722  and  _725
REMARK  298  A    between atoms: _725  and  _726
REMARK  299  A    between atoms: _729  and  _731
REMARK  300  A    between atoms: _731  and  _732
REMARK  301  A    between atoms: _731  and  _734
REMARK  302  A    between atoms: _734  and  _735
REMARK  303  A    between atoms: _741  and  _743
REMARK  304  A    between atoms: _743  and  _744
REMARK  305  A    between atoms: _743  and  _746
REMARK  306  A    between atoms: _746  and  _747
REMARK  307  A    between atoms: _752  and  _753
REMARK  308  A    between atoms: _755  and  _757
REMARK  309  A    between atoms: _757  and  _758
REMARK  310  A    between atoms: _757  and  _760
REMARK  311  A    between atoms: _760  and  _761
REMARK  312  A    between atoms: _767  and  _769
REMARK  313  A    between atoms: _769  and  _770
REMARK  314  A    between atoms: _769  and  _772
REMARK  315  A    between atoms: _772  and  _773
REMARK  316  A    between atoms: _778  and  _780
REMARK  317  A    between atoms: _780  and  _781
REMARK  318  A    between atoms: _780  and  _783
REMARK  319  A    between atoms: _783  and  _784
REMARK  320  A    between atoms: _784  and  _785
REMARK                            x       y       z     vdW  Elec       q    Type
REMARK                         _______ _______ _______ _____ _____    ______ ____
ROOT
ATOM      1  CA  SER A   1      -2.859  39.966  30.836  0.00  0.00    +0.163 C 
ENDROOT
BRANCH   1   2
ATOM      2  N   SER A   1      -3.667  39.392  29.729  0.00  0.00    -0.237 NA
ATOM      3  H   SER A   1      -4.704  39.452  29.778  0.00  0.00    +0.142 HD
ENDBRANCH   1   2
BRANCH   1   4
ATOM      4  C   SER A   1      -2.974  39.089  32.065  0.00  0.00    +0.227 C 
ATOM      5  O   SER A   1      -4.057  38.731  32.460  0.00  0.00    -0.287 OA
ENDBRANCH   1   4
BRANCH   1   6
ATOM      6  CB  SER A   1      -3.321  41.384  31.173  0.00  0.00    +0.162 C 
BRANCH   6   7
ATOM      7  OG  SER A   1      -3.110  42.236  30.089  0.00  0.00    -0.380 OA
ATOM      8  H   SER A   1      -3.414  43.148  30.324  0.00  0.00    +0.211 HD
ENDBRANCH   6   7
ENDBRANCH   1   6
TORSDOF 4
REMARK  Name = ../refined-set-2016/3drf/3drf_pocket.pdb
REMARK  320 active torsions:
REMARK  status: ('A' for Active; 'I' for Inactive)
REMARK    1  A    between atoms: _1  and  _3
REMARK    2  A    between atoms: _3  and  _4
REMARK    3  A    between atoms: _3  and  _6
REMARK    4  A    between atoms: _6  and  _7
REMARK    5  A    between atoms: _12  and  _13
REMARK    6  A    between atoms: _15  and  _17
REMARK    7  A    between atoms: _17  and  _18
REMARK    8  A    between atoms: _17  and  _20
REMARK    9  A    between atoms: _20  and  _21
REMARK   10  A    between atoms: _21  and  _22
REMARK   11  A    between atoms: _27  and  _29
REMARK   12  A    between atoms: _29  and  _30
REMARK   13  A    between atoms: _29  and  _32
REMARK   14  A    between atoms: _32  and  _33
REMARK   15  A    between atoms: _35  and  _37
REMARK   16  A    between atoms: _37  and  _38
REMARK   17  A    between atoms: _37  and  _40
REMARK   18  A    between atoms: _40  and  _41
REMARK   19  A    between atoms: _44  and  _46
REMARK   20  A    between atoms: _46  and  _47
REMARK   21  A    between atoms: _46  and  _49
REMARK   22  A    between atoms: _49  and  _50
REMARK   23  A    between atoms: _52  and  _54
REMARK   24  A    between atoms: _54  and  _55
REMARK   25  A    between atoms: _54  and  _57
REMARK   26  A    between atoms: _57  and  _58
REMARK   27  A    between atoms: _60  and  _62
REMARK   28  A    between atoms: _62  and  _63
REMARK   29  A    between atoms: _65  and  _67
REMARK   30  A    between atoms: _67  and  _68
REMARK   31  A    between atoms: _67  and  _70
REMARK   32  A    between atoms: _70  and  _71
REMARK   33  A    between atoms: _73  and  _75
REMARK   34  A    between atoms: _75  and  _76
REMARK   35  A    between atoms: _75  and  _78
REMARK   36  A    between atoms: _78  and  _79
REMARK   37  A    between atoms: _84  and  _86
REMARK   38  A    between atoms: _86  and  _87
REMARK   39  A    between atoms: _86  and  _89
REMARK   40  A    between atoms: _89  and  _90
REMARK   41  A    between atoms: _93  and  _95
REMARK   42  A    between atoms: _95  and  _96
REMARK   43  A    between atoms: _99  and  _101
REMARK   44  A    between atoms: _101  and  _102
REMARK   45  A    between atoms: _101  and  _104
REMARK   46  A    between atoms: _104  and  _105
REMARK   47  A    between atoms: _108  and  _110
REMARK   48  A    between atoms: _110  and  _111
REMARK   49  A    between atoms: _110  and  _113
REMARK   50  A    between atoms: _113  and  _114
REMARK   51  A    between atoms: _120  and  _122
REMARK   52  A    between atoms: _122  and  _123
REMARK   53  A    between atoms: _126  and  _128
REMARK   54  A    between atoms: _128  and  _129
REMARK   55  A    between atoms: _128  and  _131
REMARK   56  A    between atoms: _131  and  _132
REMARK   57  A    between atoms: _135  and  _137
REMARK   58  A    between atoms: _137  and  _138
REMARK   59  A    between atoms: _140  and  _142
REMARK   60  A    between atoms: _142  and  _143
REMARK   61  A    between atoms: _142  and  _145
REMARK   62  A    between atoms: _145  and  _146
REMARK   63  A    between atoms: _146  and  _147
REMARK   64  A    between atoms: _152  and  _154
REMARK   65  A    between atoms: _154  and  _155
REMARK   66  A    between atoms: _157  and  _159
REMARK   67  A    between atoms: _159  and  _160
REMARK   68  A    between atoms: _159  and  _162
REMARK   69  A    between atoms: _162  and  _163
REMARK   70  A    between atoms: _166  and  _168
REMARK   71  A    between atoms: _168  and  _169
REMARK   72  A    between atoms: _168  and  _171
REMARK   73  A    between atoms: _171  and  _172
REMARK   74  A    between atoms: _178  and  _180
REMARK   75  A    between atoms: _180  and  _181
REMARK   76  A    between atoms: _180  and  _183
REMARK   77  A    between atoms: _183  and  _184
REMARK   78  A    between atoms: _187  and  _189
REMARK   79  A    between atoms: _189  and  _190
REMARK   80  A    between atoms: _189  and  _192
REMARK   81  A    between atoms: _192  and  _193
REMARK   82  A    between atoms: _199  and  _201
REMARK   83  A    between atoms: _201  and  _202
REMARK   84  A    between atoms: _201  and  _204
REMARK   85  A    between atoms: _204  and  _205
REMARK   86  A    between atoms: _211  and  _213
REMARK   87  A    between atoms: _213  and  _214
REMARK   88  A    between atoms: _213  and  _216
REMARK   89  A    between atoms: _216  and  _217
REMARK   90  A    between atoms: _220  and  _222
REMARK   91  A    between atoms: _222  and  _223
REMARK   92  A    between atoms: _222  and  _225
REMARK   93  A    between atoms: _225  and  _226
REMARK   94  A    between atoms: _229  and  _231
REMARK   95  A    between atoms: _231  and  _232
REMARK   96  A    between atoms: _231  and  _234
REMARK   97  A    between atoms: _234  and  _235
REMARK   98  A    between atoms: _235  and  _236
REMARK   99  A    between atoms: _236  and  _237
REMARK  100  A    between atoms: _246  and  _248
REMARK  101  A    between atoms: _248  and  _249
REMARK  102  A    between atoms: _248  and  _251
REMARK  103  A    between atoms: _251  and  _252
REMARK  104  A    between atoms: _255  and  _257
REMARK  105  A    between atoms: _257  and  _258
REMARK  106  A    between atoms: _257  and  _260
REMARK  107  A    between atoms: _260  and  _261
REMARK  108  A    between atoms: _263  and  _265
REMARK  109  A    between atoms: _265  and  _266
REMARK  110  A    between atoms: _265  and  _268
REMARK  111  A    between atoms: _268  and  _269
REMARK  112  A    between atoms: _269  and  _270
REMARK  113  A    between atoms: _275  and  _277
REMARK  114  A    between atoms: _277  and  _278
REMARK  115  A    between atoms: _277  and  _280
REMARK  116  A    between atoms: _280  and  _281
REMARK  117  A    between atoms: _283  and  _285
REMARK  118  A    between atoms: _285  and  _286
REMARK  119  A    between atoms: _288  and  _290
REMARK  120  A    between atoms: _290  and  _291
REMARK  121  A    between atoms: _290  and  _293
REMARK  122  A    between atoms: _293  and  _294
REMARK  123  A    between atoms: _299  and  _301
REMARK  124  A    between atoms: _301  and  _302
REMARK  125  A    between atoms: _304  and  _306
REMARK  126  A    between atoms: _306  and  _307
REMARK  127  A    between atoms: _306  and  _309
REMARK  128  A    between atoms: _309  and  _310
REMARK  129  A    between atoms: _315  and  _316
REMARK  130  A    between atoms: _318  and  _320
REMARK  131  A    between atoms: _320  and  _321
REMARK  132  A    between atoms: _320  and  _323
REMARK  133  A    between atoms: _323  and  _324
REMARK  134  A    between atoms: _330  and  _332
REMARK  135  A    between atoms: _332  and  _333
REMARK  136  A    between atoms: _332  and  _335
REMARK  137  A    between atoms: _335  and  _336
REMARK  138  A    between atoms: _339  and  _341
REMARK  139  A    between atoms: _341  and  _342
REMARK  140  A    between atoms: _341  and  _344
REMARK  141  A    between atoms: _344  and  _345
REMARK  142  A    between atoms: _345  and  _346
REMARK  143  A    between atoms: _349  and  _351
REMARK  144  A    between atoms: _351  and  _352
REMARK  145  A    between atoms: _351  and  _354
REMARK  146  A    between atoms: _354  and  _355
REMARK  147  A    between atoms: _358  and  _360
REMARK  148  A    between atoms: _360  and  _361
REMARK  149  A    between atoms: _360  and  _363
REMARK  150  A    between atoms: _363  and  _364
REMARK  151  A    between atoms: _367  and  _369
REMARK  152  A    between atoms: _369  and  _370
REMARK  153  A    between atoms: _372  and  _374
REMARK  154  A    between atoms: _374  and  _375
REMARK  155  A    between atoms: _374  and  _377
REMARK  156  A    between atoms: _380  and  _382
REMARK  157  A    between atoms: _382  and  _383
REMARK  158  A    between atoms: _382  and  _385
REMARK  159  A    between atoms: _385  and  _386
REMARK  160  A    between atoms: _388  and  _390
REMARK  161  A    between atoms: _390  and  _391
REMARK  162  A    between atoms: _390  and  _393
REMARK  163  A    between atoms: _393  and  _394
REMARK  164  A    between atoms: _394  and  _395
REMARK  165  A    between atoms: _397  and  _399
REMARK  166  A    between atoms: _399  and  _400
REMARK  167  A    between atoms: _399  and  _402
REMARK  168  A    between atoms: _402  and  _403
REMARK  169  A    between atoms: _408  and  _409
REMARK  170  A    between atoms: _411  and  _413
REMARK  171  A    between atoms: _413  and  _414
REMARK  172  A    between atoms: _413  and  _416
REMARK  173  A    between atoms: _416  and  _417
REMARK  174  A    between atoms: _420  and  _422
REMARK  175  A    between atoms: _422  and  _423
REMARK  176  A    between atoms: _422  and  _425
REMARK  177  A    between atoms: _425  and  _426
REMARK  178  A    between atoms: _428  and  _430
REMARK  179  A    between atoms: _430  and  _431
REMARK  180  A    between atoms: _430  and  _433
REMARK  181  A    between atoms: _433  and  _434
REMARK  182  A    between atoms: _437  and  _439
REMARK  183  A    between atoms: _439  and  _440
REMARK  184  A    between atoms: _439  and  _442
REMARK  185  A    between atoms: _442  and  _443
REMARK  186  A    between atoms: _448  and  _449
REMARK  187  A    between atoms: _451  and  _453
REMARK  188  A    between atoms: _453  and  _454
REMARK  189  A    between atoms: _453  and  _456
REMARK  190  A    between atoms: _456  and  _457
REMARK  191  A    between atoms: _459  and  _461
REMARK  192  A    between atoms: _461  and  _462
REMARK  193  A    between atoms: _461  and  _464
REMARK  194  A    between atoms: _464  and  _465
REMARK  195  A    between atoms: _471  and  _473
REMARK  196  A    between atoms: _473  and  _474
REMARK  197  A    between atoms: _473  and  _476
REMARK  198  A    between atoms: _476  and  _477
REMARK  199  A    between atoms: _477  and  _478
REMARK  200  A    between atoms: _478  and  _479
REMARK  201  A    between atoms: _488  and  _490
REMARK  202  A    between atoms: _490  and  _491
REMARK  203  A    between atoms: _490  and  _493
REMARK  204  A    between atoms: _496  and  _498
REMARK  205  A    between atoms: _498  and  _499
REMARK  206  A    between atoms: _501  and  _503
REMARK  207  A    between atoms: _503  and  _504
REMARK  208  A    between atoms: _503  and  _506
REMARK  209  A    between atoms: _506  and  _507
REMARK  210  A    between atoms: _510  and  _512
REMARK  211  A    between atoms: _512  and  _513
REMARK  212  A    between atoms: _512  and  _515
REMARK  213  A    between atoms: _515  and  _516
REMARK  214  A    between atoms: _516  and  _517
REMARK  215  A    between atoms: _519  and  _521
REMARK  216  A    between atoms: _521  and  _522
REMARK  217  A    between atoms: _521  and  _524
REMARK  218  A    between atoms: _524  and  _525
REMARK  219  A    between atoms: _531  and  _533
REMARK  220  A    between atoms: _533  and  _534
REMARK  221  A    between atoms: _533  and  _536
REMARK  222  A    between atoms: _536  and  _537
REMARK  223  A    between atoms: _542  and  _544
REMARK  224  A    between atoms: _544  and  _545
REMARK  225  A    between atoms: _544  and  _547
REMARK  226  A    between atoms: _547  and  _548
REMARK  227  A    between atoms: _558  and  _560
REMARK  228  A    between atoms: _560  and  _561
REMARK  229  A    between atoms: _560  and  _563
REMARK  230  A    between atoms: _566  and  _568
REMARK  231  A    between atoms: _568  and  _569
REMARK  232  A    between atoms: _568  and  _571
REMARK  233  A    between atoms: _571  and  _572
REMARK  234  A    between atoms: _575  and  _577
REMARK  235  A    between atoms: _577  and  _578
REMARK  236  A    between atoms: _577  and  _580
REMARK  237  A    between atoms: _580  and  _581
REMARK  238  A    between atoms: _581  and  _582
REMARK  239  A    between atoms: _584  and  _586
REMARK  240  A    between atoms: _586  and  _587
REMARK  241  A    between atoms: _586  and  _589
REMARK  242  A    between atoms: _589  and  _590
REMARK  243  A    between atoms: _593  and  _595
REMARK  244  A    between atoms: _595  and  _596
REMARK  245  A    between atoms: _595  and  _598
REMARK  246  A    between atoms: _598  and  _599
REMARK  247  A    between atoms: _602  and  _604
REMARK  248  A    between atoms: _604  and  _605
REMARK  249  A    between atoms: _607  and  _609
REMARK  250  A    between atoms: _609  and  _610
REMARK  251  A    between atoms: _609  and  _612
REMARK  252  A    between atoms: _612  and  _613
REMARK  253  A    between atoms: _615  and  _617
REMARK  254  A    between atoms: _617  and  _618
REMARK  255  A    between atoms: _617  and  _620
REMARK  256  A    between atoms: _620  and  _621
REMARK  257  A    between atoms: _631  and  _633
REMARK  258  A    between atoms: _633  and  _634
REMARK  259  A    between atoms: _633  and  _636
REMARK  260  A    between atoms: _636  and  _637
REMARK  261  A    between atoms: _639  and  _641
REMARK  262  A    between atoms: _641  and  _642
REMARK  263  A    between atoms: _641  and  _644
REMARK  264  A    between atoms: _644  and  _645
REMARK  265  A    between atoms: _648  and  _650
REMARK  266  A    between atoms: _650  and  _651
REMARK  267  A    between atoms: _654  and  _656
REMARK  268  A    between atoms: _656  and  _657
REMARK  269  A    between atoms: _656  and  _659
REMARK  270  A    between atoms: _659  and  _660
REMARK  271  A    between atoms: _662  and  _664
REMARK  272  A    between atoms: _664  and  _665
REMARK  273  A    between atoms: _664  and  _667
REMARK  274  A    between atoms: _667  and  _668
REMARK  275  A    between atoms: _668  and  _669
REMARK  276  A    between atoms: _673  and  _674
REMARK  277  A    between atoms: _679  and  _681
REMARK  278  A    between atoms: _681  and  _682
REMARK  279  A    between atoms: _681  and  _684
REMARK  280  A    between atoms: _684  and  _685
REMARK  281  A    between atoms: _687  and  _689
REMARK  282  A    between atoms: _689  and  _690
REMARK  283  A    between atoms: _689  and  _692
REMARK  284  A    between atoms: _692  and  _693
REMARK  285  A    between atoms: _693  and  _694
REMARK  286  A    between atoms: _699  and  _701
REMARK  287  A    between atoms: _701  and  _702
REMARK  288  A    between atoms: _701  and  _704
REMARK  289  A    between atoms: _704  and  _705
REMARK  290  A    between atoms: _705  and  _706
REMARK  291  A    between atoms: _711  and  _713
REMARK  292  A    between atoms: _713  and  _714
REMARK  293  A    between atoms: _713  and  _716
REMARK  294  A    between atoms: _716  and  _717
REMARK  295  A    between atoms: _720  and  _722
REMARK  296  A    between atoms: _722  and  _723
REMARK  297  A    between atoms: _722  and  _725
REMARK  298  A    between atoms: _725  and  _726
REMARK  299  A    between atoms: _729  and  _731
REMARK  300  A    between atoms: _731  and  _732
REMARK  301  A    between atoms: _731  and  _734
REMARK  302  A    between atoms: _734  and  _735
REMARK  303  A    between atoms: _741  and  _743
REMARK  304  A    between atoms: _743  and  _744
REMARK  305  A    between atoms: _743  and  _746
REMARK  306  A    between atoms: _746  and  _747
REMARK  307  A    between atoms: _752  and  _753
REMARK  308  A    between atoms: _755  and  _757
REMARK  309  A    between atoms: _757  and  _758
REMARK  310  A    between atoms: _757  and  _760
REMARK  311  A    between atoms: _760  and  _761
REMARK  312  A    between atoms: _767  and  _769
REMARK  313  A    between atoms: _769  and  _770
REMARK  314  A    between atoms: _769  and  _772
REMARK  315  A    between atoms: _772  and  _773
REMARK  316  A    between atoms: _778  and  _780
REMARK  317  A    between atoms: _780  and  _781
REMARK  318  A    between atoms: _780  and  _783
REMARK  319  A    between atoms: _783  and  _784
REMARK  320  A    between atoms: _784  and  _785
REMARK                            x       y       z     vdW  Elec       q    Type
REMARK                         _______ _______ _______ _____ _____    ______ ____
ROOT
ATOM      1  CB  PHE A   1      13.425  35.869  31.376  0.00  0.00    +0.051 C 
ENDROOT
BRANCH   1   2
ATOM      2  CG  PHE A   1      13.597  37.036  30.432  0.00  0.00    -0.020 A 
ATOM      3  CD2 PHE A   1      13.139  38.277  30.785  0.00  0.00    -0.004 A 
ATOM      4  CE2 PHE A   1      13.328  39.382  29.907  0.00  0.00    -0.000 A 
ATOM      5  CZ  PHE A   1      13.953  39.180  28.705  0.00  0.00    -0.000 A 
ATOM      6  CE1 PHE A   1      14.405  37.920  28.378  0.00  0.00    -0.000 A 
ATOM      7  CD1 PHE A   1      14.258  36.894  29.231  0.00  0.00    -0.004 A 
ENDBRANCH   1   2
BRANCH   1   8
ATOM      8  CA  PHE A   1      12.794  34.626  30.723  0.00  0.00    +0.137 C 
BRANCH   8   9
ATOM      9  N   PHE A   1      11.501  34.952  30.109  0.00  0.00    -0.239 NA
ATOM     10  H   PHE A   1      10.901  35.661  30.576  0.00  0.00    +0.142 HD
ENDBRANCH   8   9
BRANCH   8  11
ATOM     11  C   PHE A   1      12.642  33.477  31.735  0.00  0.00    +0.224 C 
ATOM     12  O   PHE A   1      12.808  33.606  32.875  0.00  0.00    -0.287 OA
ENDBRANCH   8  11
ENDBRANCH   1   8
TORSDOF 4
REMARK  Name = ../refined-set-2016/3drf/3drf_pocket.pdb
REMARK  320 active torsions:
REMARK  status: ('A' for Active; 'I' for Inactive)
REMARK    1  A    between atoms: _1  and  _3
REMARK    2  A    between atoms: _3  and  _4
REMARK    3  A    between atoms: _3  and  _6
REMARK    4  A    between atoms: _6  and  _7
REMARK    5  A    between atoms: _12  and  _13
REMARK    6  A    between atoms: _15  and  _17
REMARK    7  A    between atoms: _17  and  _18
REMARK    8  A    between atoms: _17  and  _20
REMARK    9  A    between atoms: _20  and  _21
REMARK   10  A    between atoms: _21  and  _22
REMARK   11  A    between atoms: _27  and  _29
REMARK   12  A    between atoms: _29  and  _30
REMARK   13  A    between atoms: _29  and  _32
REMARK   14  A    between atoms: _32  and  _33
REMARK   15  A    between atoms: _35  and  _37
REMARK   16  A    between atoms: _37  and  _38
REMARK   17  A    between atoms: _37  and  _40
REMARK   18  A    between atoms: _40  and  _41
REMARK   19  A    between atoms: _44  and  _46
REMARK   20  A    between atoms: _46  and  _47
REMARK   21  A    between atoms: _46  and  _49
REMARK   22  A    between atoms: _49  and  _50
REMARK   23  A    between atoms: _52  and  _54
REMARK   24  A    between atoms: _54  and  _55
REMARK   25  A    between atoms: _54  and  _57
REMARK   26  A    between atoms: _57  and  _58
REMARK   27  A    between atoms: _60  and  _62
REMARK   28  A    between atoms: _62  and  _63
REMARK   29  A    between atoms: _65  and  _67
REMARK   30  A    between atoms: _67  and  _68
REMARK   31  A    between atoms: _67  and  _70
REMARK   32  A    between atoms: _70  and  _71
REMARK   33  A    between atoms: _73  and  _75
REMARK   34  A    between atoms: _75  and  _76
REMARK   35  A    between atoms: _75  and  _78
REMARK   36  A    between atoms: _78  and  _79
REMARK   37  A    between atoms: _84  and  _86
REMARK   38  A    between atoms: _86  and  _87
REMARK   39  A    between atoms: _86  and  _89
REMARK   40  A    between atoms: _89  and  _90
REMARK   41  A    between atoms: _93  and  _95
REMARK   42  A    between atoms: _95  and  _96
REMARK   43  A    between atoms: _99  and  _101
REMARK   44  A    between atoms: _101  and  _102
REMARK   45  A    between atoms: _101  and  _104
REMARK   46  A    between atoms: _104  and  _105
REMARK   47  A    between atoms: _108  and  _110
REMARK   48  A    between atoms: _110  and  _111
REMARK   49  A    between atoms: _110  and  _113
REMARK   50  A    between atoms: _113  and  _114
REMARK   51  A    between atoms: _120  and  _122
REMARK   52  A    between atoms: _122  and  _123
REMARK   53  A    between atoms: _126  and  _128
REMARK   54  A    between atoms: _128  and  _129
REMARK   55  A    between atoms: _128  and  _131
REMARK   56  A    between atoms: _131  and  _132
REMARK   57  A    between atoms: _135  and  _137
REMARK   58  A    between atoms: _137  and  _138
REMARK   59  A    between atoms: _140  and  _142
REMARK   60  A    between atoms: _142  and  _143
REMARK   61  A    between atoms: _142  and  _145
REMARK   62  A    between atoms: _145  and  _146
REMARK   63  A    between atoms: _146  and  _147
REMARK   64  A    between atoms: _152  and  _154
REMARK   65  A    between atoms: _154  and  _155
REMARK   66  A    between atoms: _157  and  _159
REMARK   67  A    between atoms: _159  and  _160
REMARK   68  A    between atoms: _159  and  _162
REMARK   69  A    between atoms: _162  and  _163
REMARK   70  A    between atoms: _166  and  _168
REMARK   71  A    between atoms: _168  and  _169
REMARK   72  A    between atoms: _168  and  _171
REMARK   73  A    between atoms: _171  and  _172
REMARK   74  A    between atoms: _178  and  _180
REMARK   75  A    between atoms: _180  and  _181
REMARK   76  A    between atoms: _180  and  _183
REMARK   77  A    between atoms: _183  and  _184
REMARK   78  A    between atoms: _187  and  _189
REMARK   79  A    between atoms: _189  and  _190
REMARK   80  A    between atoms: _189  and  _192
REMARK   81  A    between atoms: _192  and  _193
REMARK   82  A    between atoms: _199  and  _201
REMARK   83  A    between atoms: _201  and  _202
REMARK   84  A    between atoms: _201  and  _204
REMARK   85  A    between atoms: _204  and  _205
REMARK   86  A    between atoms: _211  and  _213
REMARK   87  A    between atoms: _213  and  _214
REMARK   88  A    between atoms: _213  and  _216
REMARK   89  A    between atoms: _216  and  _217
REMARK   90  A    between atoms: _220  and  _222
REMARK   91  A    between atoms: _222  and  _223
REMARK   92  A    between atoms: _222  and  _225
REMARK   93  A    between atoms: _225  and  _226
REMARK   94  A    between atoms: _229  and  _231
REMARK   95  A    between atoms: _231  and  _232
REMARK   96  A    between atoms: _231  and  _234
REMARK   97  A    between atoms: _234  and  _235
REMARK   98  A    between atoms: _235  and  _236
REMARK   99  A    between atoms: _236  and  _237
REMARK  100  A    between atoms: _246  and  _248
REMARK  101  A    between atoms: _248  and  _249
REMARK  102  A    between atoms: _248  and  _251
REMARK  103  A    between atoms: _251  and  _252
REMARK  104  A    between atoms: _255  and  _257
REMARK  105  A    between atoms: _257  and  _258
REMARK  106  A    between atoms: _257  and  _260
REMARK  107  A    between atoms: _260  and  _261
REMARK  108  A    between atoms: _263  and  _265
REMARK  109  A    between atoms: _265  and  _266
REMARK  110  A    between atoms: _265  and  _268
REMARK  111  A    between atoms: _268  and  _269
REMARK  112  A    between atoms: _269  and  _270
REMARK  113  A    between atoms: _275  and  _277
REMARK  114  A    between atoms: _277  and  _278
REMARK  115  A    between atoms: _277  and  _280
REMARK  116  A    between atoms: _280  and  _281
REMARK  117  A    between atoms: _283  and  _285
REMARK  118  A    between atoms: _285  and  _286
REMARK  119  A    between atoms: _288  and  _290
REMARK  120  A    between atoms: _290  and  _291
REMARK  121  A    between atoms: _290  and  _293
REMARK  122  A    between atoms: _293  and  _294
REMARK  123  A    between atoms: _299  and  _301
REMARK  124  A    between atoms: _301  and  _302
REMARK  125  A    between atoms: _304  and  _306
REMARK  126  A    between atoms: _306  and  _307
REMARK  127  A    between atoms: _306  and  _309
REMARK  128  A    between atoms: _309  and  _310
REMARK  129  A    between atoms: _315  and  _316
REMARK  130  A    between atoms: _318  and  _320
REMARK  131  A    between atoms: _320  and  _321
REMARK  132  A    between atoms: _320  and  _323
REMARK  133  A    between atoms: _323  and  _324
REMARK  134  A    between atoms: _330  and  _332
REMARK  135  A    between atoms: _332  and  _333
REMARK  136  A    between atoms: _332  and  _335
REMARK  137  A    between atoms: _335  and  _336
REMARK  138  A    between atoms: _339  and  _341
REMARK  139  A    between atoms: _341  and  _342
REMARK  140  A    between atoms: _341  and  _344
REMARK  141  A    between atoms: _344  and  _345
REMARK  142  A    between atoms: _345  and  _346
REMARK  143  A    between atoms: _349  and  _351
REMARK  144  A    between atoms: _351  and  _352
REMARK  145  A    between atoms: _351  and  _354
REMARK  146  A    between atoms: _354  and  _355
REMARK  147  A    between atoms: _358  and  _360
REMARK  148  A    between atoms: _360  and  _361
REMARK  149  A    between atoms: _360  and  _363
REMARK  150  A    between atoms: _363  and  _364
REMARK  151  A    between atoms: _367  and  _369
REMARK  152  A    between atoms: _369  and  _370
REMARK  153  A    between atoms: _372  and  _374
REMARK  154  A    between atoms: _374  and  _375
REMARK  155  A    between atoms: _374  and  _377
REMARK  156  A    between atoms: _380  and  _382
REMARK  157  A    between atoms: _382  and  _383
REMARK  158  A    between atoms: _382  and  _385
REMARK  159  A    between atoms: _385  and  _386
REMARK  160  A    between atoms: _388  and  _390
REMARK  161  A    between atoms: _390  and  _391
REMARK  162  A    between atoms: _390  and  _393
REMARK  163  A    between atoms: _393  and  _394
REMARK  164  A    between atoms: _394  and  _395
REMARK  165  A    between atoms: _397  and  _399
REMARK  166  A    between atoms: _399  and  _400
REMARK  167  A    between atoms: _399  and  _402
REMARK  168  A    between atoms: _402  and  _403
REMARK  169  A    between atoms: _408  and  _409
REMARK  170  A    between atoms: _411  and  _413
REMARK  171  A    between atoms: _413  and  _414
REMARK  172  A    between atoms: _413  and  _416
REMARK  173  A    between atoms: _416  and  _417
REMARK  174  A    between atoms: _420  and  _422
REMARK  175  A    between atoms: _422  and  _423
REMARK  176  A    between atoms: _422  and  _425
REMARK  177  A    between atoms: _425  and  _426
REMARK  178  A    between atoms: _428  and  _430
REMARK  179  A    between atoms: _430  and  _431
REMARK  180  A    between atoms: _430  and  _433
REMARK  181  A    between atoms: _433  and  _434
REMARK  182  A    between atoms: _437  and  _439
REMARK  183  A    between atoms: _439  and  _440
REMARK  184  A    between atoms: _439  and  _442
REMARK  185  A    between atoms: _442  and  _443
REMARK  186  A    between atoms: _448  and  _449
REMARK  187  A    between atoms: _451  and  _453
REMARK  188  A    between atoms: _453  and  _454
REMARK  189  A    between atoms: _453  and  _456
REMARK  190  A    between atoms: _456  and  _457
REMARK  191  A    between atoms: _459  and  _461
REMARK  192  A    between atoms: _461  and  _462
REMARK  193  A    between atoms: _461  and  _464
REMARK  194  A    between atoms: _464  and  _465
REMARK  195  A    between atoms: _471  and  _473
REMARK  196  A    between atoms: _473  and  _474
REMARK  197  A    between atoms: _473  and  _476
REMARK  198  A    between atoms: _476  and  _477
REMARK  199  A    between atoms: _477  and  _478
REMARK  200  A    between atoms: _478  and  _479
REMARK  201  A    between atoms: _488  and  _490
REMARK  202  A    between atoms: _490  and  _491
REMARK  203  A    between atoms: _490  and  _493
REMARK  204  A    between atoms: _496  and  _498
REMARK  205  A    between atoms: _498  and  _499
REMARK  206  A    between atoms: _501  and  _503
REMARK  207  A    between atoms: _503  and  _504
REMARK  208  A    between atoms: _503  and  _506
REMARK  209  A    between atoms: _506  and  _507
REMARK  210  A    between atoms: _510  and  _512
REMARK  211  A    between atoms: _512  and  _513
REMARK  212  A    between atoms: _512  and  _515
REMARK  213  A    between atoms: _515  and  _516
REMARK  214  A    between atoms: _516  and  _517
REMARK  215  A    between atoms: _519  and  _521
REMARK  216  A    between atoms: _521  and  _522
REMARK  217  A    between atoms: _521  and  _524
REMARK  218  A    between atoms: _524  and  _525
REMARK  219  A    between atoms: _531  and  _533
REMARK  220  A    between atoms: _533  and  _534
REMARK  221  A    between atoms: _533  and  _536
REMARK  222  A    between atoms: _536  and  _537
REMARK  223  A    between atoms: _542  and  _544
REMARK  224  A    between atoms: _544  and  _545
REMARK  225  A    between atoms: _544  and  _547
REMARK  226  A    between atoms: _547  and  _548
REMARK  227  A    between atoms: _558  and  _560
REMARK  228  A    between atoms: _560  and  _561
REMARK  229  A    between atoms: _560  and  _563
REMARK  230  A    between atoms: _566  and  _568
REMARK  231  A    between atoms: _568  and  _569
REMARK  232  A    between atoms: _568  and  _571
REMARK  233  A    between atoms: _571  and  _572
REMARK  234  A    between atoms: _575  and  _577
REMARK  235  A    between atoms: _577  and  _578
REMARK  236  A    between atoms: _577  and  _580
REMARK  237  A    between atoms: _580  and  _581
REMARK  238  A    between atoms: _581  and  _582
REMARK  239  A    between atoms: _584  and  _586
REMARK  240  A    between atoms: _586  and  _587
REMARK  241  A    between atoms: _586  and  _589
REMARK  242  A    between atoms: _589  and  _590
REMARK  243  A    between atoms: _593  and  _595
REMARK  244  A    between atoms: _595  and  _596
REMARK  245  A    between atoms: _595  and  _598
REMARK  246  A    between atoms: _598  and  _599
REMARK  247  A    between atoms: _602  and  _604
REMARK  248  A    between atoms: _604  and  _605
REMARK  249  A    between atoms: _607  and  _609
REMARK  250  A    between atoms: _609  and  _610
REMARK  251  A    between atoms: _609  and  _612
REMARK  252  A    between atoms: _612  and  _613
REMARK  253  A    between atoms: _615  and  _617
REMARK  254  A    between atoms: _617  and  _618
REMARK  255  A    between atoms: _617  and  _620
REMARK  256  A    between atoms: _620  and  _621
REMARK  257  A    between atoms: _631  and  _633
REMARK  258  A    between atoms: _633  and  _634
REMARK  259  A    between atoms: _633  and  _636
REMARK  260  A    between atoms: _636  and  _637
REMARK  261  A    between atoms: _639  and  _641
REMARK  262  A    between atoms: _641  and  _642
REMARK  263  A    between atoms: _641  and  _644
REMARK  264  A    between atoms: _644  and  _645
REMARK  265  A    between atoms: _648  and  _650
REMARK  266  A    between atoms: _650  and  _651
REMARK  267  A    between atoms: _654  and  _656
REMARK  268  A    between atoms: _656  and  _657
REMARK  269  A    between atoms: _656  and  _659
REMARK  270  A    between atoms: _659  and  _660
REMARK  271  A    between atoms: _662  and  _664
REMARK  272  A    between atoms: _664  and  _665
REMARK  273  A    between atoms: _664  and  _667
REMARK  274  A    between atoms: _667  and  _668
REMARK  275  A    between atoms: _668  and  _669
REMARK  276  A    between atoms: _673  and  _674
REMARK  277  A    between atoms: _679  and  _681
REMARK  278  A    between atoms: _681  and  _682
REMARK  279  A    between atoms: _681  and  _684
REMARK  280  A    between atoms: _684  and  _685
REMARK  281  A    between atoms: _687  and  _689
REMARK  282  A    between atoms: _689  and  _690
REMARK  283  A    between atoms: _689  and  _692
REMARK  284  A    between atoms: _692  and  _693
REMARK  285  A    between atoms: _693  and  _694
REMARK  286  A    between atoms: _699  and  _701
REMARK  287  A    between atoms: _701  and  _702
REMARK  288  A    between atoms: _701  and  _704
REMARK  289  A    between atoms: _704  and  _705
REMARK  290  A    between atoms: _705  and  _706
REMARK  291  A    between atoms: _711  and  _713
REMARK  292  A    between atoms: _713  and  _714
REMARK  293  A    between atoms: _713  and  _716
REMARK  294  A    between atoms: _716  and  _717
REMARK  295  A    between atoms: _720  and  _722
REMARK  296  A    between atoms: _722  and  _723
REMARK  297  A    between atoms: _722  and  _725
REMARK  298  A    between atoms: _725  and  _726
REMARK  299  A    between atoms: _729  and  _731
REMARK  300  A    between atoms: _731  and  _732
REMARK  301  A    between atoms: _731  and  _734
REMARK  302  A    between atoms: _734  and  _735
REMARK  303  A    between atoms: _741  and  _743
REMARK  304  A    between atoms: _743  and  _744
REMARK  305  A    between atoms: _743  and  _746
REMARK  306  A    between atoms: _746  and  _747
REMARK  307  A    between atoms: _752  and  _753
REMARK  308  A    between atoms: _755  and  _757
REMARK  309  A    between atoms: _757  and  _758
REMARK  310  A    between atoms: _757  and  _760
REMARK  311  A    between atoms: _760  and  _761
REMARK  312  A    between atoms: _767  and  _769
REMARK  313  A    between atoms: _769  and  _770
REMARK  314  A    between atoms: _769  and  _772
REMARK  315  A    between atoms: _772  and  _773
REMARK  316  A    between atoms: _778  and  _780
REMARK  317  A    between atoms: _780  and  _781
REMARK  318  A    between atoms: _780  and  _783
REMARK  319  A    between atoms: _783  and  _784
REMARK  320  A    between atoms: _784  and  _785
REMARK                            x       y       z     vdW  Elec       q    Type
REMARK                         _______ _______ _______ _____ _____    ______ ____
ROOT
ATOM      1  CA  VAL A   2      -4.366  57.853  28.708  0.00  0.00    +0.148 C 
ENDROOT
BRANCH   1   4
ATOM      2  C   ARG A   1      -3.297  57.402  30.849  0.00  0.00    +0.238 C 
ATOM      3  O   ARG A   1      -4.106  56.594  31.176  0.00  0.00    -0.274 OA
ATOM      4  N   VAL A   2      -3.374  58.110  29.728  0.00  0.00    -0.297 N 
ATOM      5  H   VAL A   2      -2.693  58.881  29.578  0.00  0.00    +0.150 HD
BRANCH   2   6
ATOM      6  CA  ARG A   1      -2.049  57.687  31.703  0.00  0.00    +0.145 C 
BRANCH   6   7
ATOM      7  N   ARG A   1      -2.237  57.427  33.128  0.00  0.00    -0.238 NA
ATOM      8  H   ARG A   1      -2.177  56.446  33.467  0.00  0.00    +0.142 HD
ENDBRANCH   6   7
BRANCH   6   9
ATOM      9  CB  ARG A   1      -0.884  56.828  31.185  0.00  0.00    +0.030 C 
BRANCH   9  10
ATOM     10  CG  ARG A   1       0.433  57.008  31.982  0.00  0.00    +0.045 C 
BRANCH  10  11
ATOM     11  CD  ARG A   1       1.622  56.403  31.250  0.00  0.00    +0.174 C 
BRANCH  11  12
ATOM     12  NE  ARG A   1       1.463  54.991  31.090  0.00  0.00    -0.265 N 
ATOM     13  HE  ARG A   1       0.595  54.547  31.452  0.00  0.00    +0.259 HD
ATOM     14  CZ  ARG A   1       2.356  54.229  30.510  0.00  0.00    +0.342 C 
ATOM     15  NH2 ARG A   1       2.115  52.971  30.356  0.00  0.00    -0.292 N 
ATOM     16 HH21 ARG A   1       1.217  52.569  30.692  0.00  0.00    +0.255 HD
ATOM     17 HH22 ARG A   1       2.819  52.359  29.896  0.00  0.00    +0.255 HD
ATOM     18  NH1 ARG A   1       3.428  54.748  30.009  0.00  0.00    -0.292 N 
ATOM     19 HH11 ARG A   1       3.584  55.775  30.066  0.00  0.00    +0.255 HD
ATOM     20 HH12 ARG A   1       4.135  54.139  29.549  0.00  0.00    +0.255 HD
ENDBRANCH  11  12
ENDBRANCH  10  11
ENDBRANCH   9  10
ENDBRANCH   6   9
ENDBRANCH   2   6
ENDBRANCH   1   4
BRANCH   1  21
ATOM     21  C   VAL A   2      -4.144  56.404  28.271  0.00  0.00    +0.241 C 
ATOM     22  O   VAL A   2      -3.052  55.947  28.215  0.00  0.00    -0.273 OA
ATOM     23  N   GLY A   3      -5.240  55.710  27.977  0.00  0.00    -0.295 N 
ATOM     24  H   GLY A   3      -6.168  56.117  28.210  0.00  0.00    +0.150 HD
BRANCH  23  25
ATOM     25  CA  GLY A   3      -5.188  54.403  27.342  0.00  0.00    +0.176 C 
BRANCH  25  26
ATOM     26  C   GLY A   3      -6.390  54.206  26.432  0.00  0.00    +0.243 C 
ATOM     27  N   ASP A   4      -6.937  53.002  26.495  0.00  0.00    -0.297 N 
ATOM     28  H   ASP A   4      -6.511  52.296  27.129  0.00  0.00    +0.150 HD
ATOM     29  O   GLY A   3      -6.806  55.072  25.723  0.00  0.00    -0.273 OA
BRANCH  27  30
ATOM     30  CA  ASP A   4      -8.117  52.618  25.711  0.00  0.00    +0.148 C 
BRANCH  30  31
ATOM     31  C   ASP A   4      -9.384  53.136  26.374  0.00  0.00    +0.227 C 
ATOM     32  O   ASP A   4      -9.347  53.908  27.285  0.00  0.00    -0.286 OA
ENDBRANCH  30  31
BRANCH  30  33
ATOM     33  CB  ASP A   4      -8.162  51.073  25.502  0.00  0.00    +0.142 C 
BRANCH  33  34
ATOM     34  CG  ASP A   4      -8.395  50.269  26.789  0.00  0.00    +0.367 C 
ATOM     35  OD2 ASP A   4      -8.764  50.809  27.792  0.00  0.00    -0.246 OA
ATOM     36  OD1 ASP A   4      -8.180  49.048  26.748  0.00  0.00    -0.246 OA
ENDBRANCH  33  34
ENDBRANCH  30  33
ENDBRANCH  27  30
ENDBRANCH  25  26
ENDBRANCH  23  25
ENDBRANCH   1  21
BRANCH   1  37
ATOM     37  CB  VAL A   2      -4.127  58.844  27.512  0.00  0.00    +0.027 C 
ATOM     38  CG2 VAL A   2      -4.570  60.248  27.950  0.00  0.00    +0.002 C 
ATOM     39  CG1 VAL A   2      -4.911  58.423  26.210  0.00  0.00    +0.002 C 
ENDBRANCH   1  37
TORSDOF 15
REMARK  Name = ../refined-set-2016/3drf/3drf_pocket.pdb
REMARK  320 active torsions:
REMARK  status: ('A' for Active; 'I' for Inactive)
REMARK    1  A    between atoms: _1  and  _3
REMARK    2  A    between atoms: _3  and  _4
REMARK    3  A    between atoms: _3  and  _6
REMARK    4  A    between atoms: _6  and  _7
REMARK    5  A    between atoms: _12  and  _13
REMARK    6  A    between atoms: _15  and  _17
REMARK    7  A    between atoms: _17  and  _18
REMARK    8  A    between atoms: _17  and  _20
REMARK    9  A    between atoms: _20  and  _21
REMARK   10  A    between atoms: _21  and  _22
REMARK   11  A    between atoms: _27  and  _29
REMARK   12  A    between atoms: _29  and  _30
REMARK   13  A    between atoms: _29  and  _32
REMARK   14  A    between atoms: _32  and  _33
REMARK   15  A    between atoms: _35  and  _37
REMARK   16  A    between atoms: _37  and  _38
REMARK   17  A    between atoms: _37  and  _40
REMARK   18  A    between atoms: _40  and  _41
REMARK   19  A    between atoms: _44  and  _46
REMARK   20  A    between atoms: _46  and  _47
REMARK   21  A    between atoms: _46  and  _49
REMARK   22  A    between atoms: _49  and  _50
REMARK   23  A    between atoms: _52  and  _54
REMARK   24  A    between atoms: _54  and  _55
REMARK   25  A    between atoms: _54  and  _57
REMARK   26  A    between atoms: _57  and  _58
REMARK   27  A    between atoms: _60  and  _62
REMARK   28  A    between atoms: _62  and  _63
REMARK   29  A    between atoms: _65  and  _67
REMARK   30  A    between atoms: _67  and  _68
REMARK   31  A    between atoms: _67  and  _70
REMARK   32  A    between atoms: _70  and  _71
REMARK   33  A    between atoms: _73  and  _75
REMARK   34  A    between atoms: _75  and  _76
REMARK   35  A    between atoms: _75  and  _78
REMARK   36  A    between atoms: _78  and  _79
REMARK   37  A    between atoms: _84  and  _86
REMARK   38  A    between atoms: _86  and  _87
REMARK   39  A    between atoms: _86  and  _89
REMARK   40  A    between atoms: _89  and  _90
REMARK   41  A    between atoms: _93  and  _95
REMARK   42  A    between atoms: _95  and  _96
REMARK   43  A    between atoms: _99  and  _101
REMARK   44  A    between atoms: _101  and  _102
REMARK   45  A    between atoms: _101  and  _104
REMARK   46  A    between atoms: _104  and  _105
REMARK   47  A    between atoms: _108  and  _110
REMARK   48  A    between atoms: _110  and  _111
REMARK   49  A    between atoms: _110  and  _113
REMARK   50  A    between atoms: _113  and  _114
REMARK   51  A    between atoms: _120  and  _122
REMARK   52  A    between atoms: _122  and  _123
REMARK   53  A    between atoms: _126  and  _128
REMARK   54  A    between atoms: _128  and  _129
REMARK   55  A    between atoms: _128  and  _131
REMARK   56  A    between atoms: _131  and  _132
REMARK   57  A    between atoms: _135  and  _137
REMARK   58  A    between atoms: _137  and  _138
REMARK   59  A    between atoms: _140  and  _142
REMARK   60  A    between atoms: _142  and  _143
REMARK   61  A    between atoms: _142  and  _145
REMARK   62  A    between atoms: _145  and  _146
REMARK   63  A    between atoms: _146  and  _147
REMARK   64  A    between atoms: _152  and  _154
REMARK   65  A    between atoms: _154  and  _155
REMARK   66  A    between atoms: _157  and  _159
REMARK   67  A    between atoms: _159  and  _160
REMARK   68  A    between atoms: _159  and  _162
REMARK   69  A    between atoms: _162  and  _163
REMARK   70  A    between atoms: _166  and  _168
REMARK   71  A    between atoms: _168  and  _169
REMARK   72  A    between atoms: _168  and  _171
REMARK   73  A    between atoms: _171  and  _172
REMARK   74  A    between atoms: _178  and  _180
REMARK   75  A    between atoms: _180  and  _181
REMARK   76  A    between atoms: _180  and  _183
REMARK   77  A    between atoms: _183  and  _184
REMARK   78  A    between atoms: _187  and  _189
REMARK   79  A    between atoms: _189  and  _190
REMARK   80  A    between atoms: _189  and  _192
REMARK   81  A    between atoms: _192  and  _193
REMARK   82  A    between atoms: _199  and  _201
REMARK   83  A    between atoms: _201  and  _202
REMARK   84  A    between atoms: _201  and  _204
REMARK   85  A    between atoms: _204  and  _205
REMARK   86  A    between atoms: _211  and  _213
REMARK   87  A    between atoms: _213  and  _214
REMARK   88  A    between atoms: _213  and  _216
REMARK   89  A    between atoms: _216  and  _217
REMARK   90  A    between atoms: _220  and  _222
REMARK   91  A    between atoms: _222  and  _223
REMARK   92  A    between atoms: _222  and  _225
REMARK   93  A    between atoms: _225  and  _226
REMARK   94  A    between atoms: _229  and  _231
REMARK   95  A    between atoms: _231  and  _232
REMARK   96  A    between atoms: _231  and  _234
REMARK   97  A    between atoms: _234  and  _235
REMARK   98  A    between atoms: _235  and  _236
REMARK   99  A    between atoms: _236  and  _237
REMARK  100  A    between atoms: _246  and  _248
REMARK  101  A    between atoms: _248  and  _249
REMARK  102  A    between atoms: _248  and  _251
REMARK  103  A    between atoms: _251  and  _252
REMARK  104  A    between atoms: _255  and  _257
REMARK  105  A    between atoms: _257  and  _258
REMARK  106  A    between atoms: _257  and  _260
REMARK  107  A    between atoms: _260  and  _261
REMARK  108  A    between atoms: _263  and  _265
REMARK  109  A    between atoms: _265  and  _266
REMARK  110  A    between atoms: _265  and  _268
REMARK  111  A    between atoms: _268  and  _269
REMARK  112  A    between atoms: _269  and  _270
REMARK  113  A    between atoms: _275  and  _277
REMARK  114  A    between atoms: _277  and  _278
REMARK  115  A    between atoms: _277  and  _280
REMARK  116  A    between atoms: _280  and  _281
REMARK  117  A    between atoms: _283  and  _285
REMARK  118  A    between atoms: _285  and  _286
REMARK  119  A    between atoms: _288  and  _290
REMARK  120  A    between atoms: _290  and  _291
REMARK  121  A    between atoms: _290  and  _293
REMARK  122  A    between atoms: _293  and  _294
REMARK  123  A    between atoms: _299  and  _301
REMARK  124  A    between atoms: _301  and  _302
REMARK  125  A    between atoms: _304  and  _306
REMARK  126  A    between atoms: _306  and  _307
REMARK  127  A    between atoms: _306  and  _309
REMARK  128  A    between atoms: _309  and  _310
REMARK  129  A    between atoms: _315  and  _316
REMARK  130  A    between atoms: _318  and  _320
REMARK  131  A    between atoms: _320  and  _321
REMARK  132  A    between atoms: _320  and  _323
REMARK  133  A    between atoms: _323  and  _324
REMARK  134  A    between atoms: _330  and  _332
REMARK  135  A    between atoms: _332  and  _333
REMARK  136  A    between atoms: _332  and  _335
REMARK  137  A    between atoms: _335  and  _336
REMARK  138  A    between atoms: _339  and  _341
REMARK  139  A    between atoms: _341  and  _342
REMARK  140  A    between atoms: _341  and  _344
REMARK  141  A    between atoms: _344  and  _345
REMARK  142  A    between atoms: _345  and  _346
REMARK  143  A    between atoms: _349  and  _351
REMARK  144  A    between atoms: _351  and  _352
REMARK  145  A    between atoms: _351  and  _354
REMARK  146  A    between atoms: _354  and  _355
REMARK  147  A    between atoms: _358  and  _360
REMARK  148  A    between atoms: _360  and  _361
REMARK  149  A    between atoms: _360  and  _363
REMARK  150  A    between atoms: _363  and  _364
REMARK  151  A    between atoms: _367  and  _369
REMARK  152  A    between atoms: _369  and  _370
REMARK  153  A    between atoms: _372  and  _374
REMARK  154  A    between atoms: _374  and  _375
REMARK  155  A    between atoms: _374  and  _377
REMARK  156  A    between atoms: _380  and  _382
REMARK  157  A    between atoms: _382  and  _383
REMARK  158  A    between atoms: _382  and  _385
REMARK  159  A    between atoms: _385  and  _386
REMARK  160  A    between atoms: _388  and  _390
REMARK  161  A    between atoms: _390  and  _391
REMARK  162  A    between atoms: _390  and  _393
REMARK  163  A    between atoms: _393  and  _394
REMARK  164  A    between atoms: _394  and  _395
REMARK  165  A    between atoms: _397  and  _399
REMARK  166  A    between atoms: _399  and  _400
REMARK  167  A    between atoms: _399  and  _402
REMARK  168  A    between atoms: _402  and  _403
REMARK  169  A    between atoms: _408  and  _409
REMARK  170  A    between atoms: _411  and  _413
REMARK  171  A    between atoms: _413  and  _414
REMARK  172  A    between atoms: _413  and  _416
REMARK  173  A    between atoms: _416  and  _417
REMARK  174  A    between atoms: _420  and  _422
REMARK  175  A    between atoms: _422  and  _423
REMARK  176  A    between atoms: _422  and  _425
REMARK  177  A    between atoms: _425  and  _426
REMARK  178  A    between atoms: _428  and  _430
REMARK  179  A    between atoms: _430  and  _431
REMARK  180  A    between atoms: _430  and  _433
REMARK  181  A    between atoms: _433  and  _434
REMARK  182  A    between atoms: _437  and  _439
REMARK  183  A    between atoms: _439  and  _440
REMARK  184  A    between atoms: _439  and  _442
REMARK  185  A    between atoms: _442  and  _443
REMARK  186  A    between atoms: _448  and  _449
REMARK  187  A    between atoms: _451  and  _453
REMARK  188  A    between atoms: _453  and  _454
REMARK  189  A    between atoms: _453  and  _456
REMARK  190  A    between atoms: _456  and  _457
REMARK  191  A    between atoms: _459  and  _461
REMARK  192  A    between atoms: _461  and  _462
REMARK  193  A    between atoms: _461  and  _464
REMARK  194  A    between atoms: _464  and  _465
REMARK  195  A    between atoms: _471  and  _473
REMARK  196  A    between atoms: _473  and  _474
REMARK  197  A    between atoms: _473  and  _476
REMARK  198  A    between atoms: _476  and  _477
REMARK  199  A    between atoms: _477  and  _478
REMARK  200  A    between atoms: _478  and  _479
REMARK  201  A    between atoms: _488  and  _490
REMARK  202  A    between atoms: _490  and  _491
REMARK  203  A    between atoms: _490  and  _493
REMARK  204  A    between atoms: _496  and  _498
REMARK  205  A    between atoms: _498  and  _499
REMARK  206  A    between atoms: _501  and  _503
REMARK  207  A    between atoms: _503  and  _504
REMARK  208  A    between atoms: _503  and  _506
REMARK  209  A    between atoms: _506  and  _507
REMARK  210  A    between atoms: _510  and  _512
REMARK  211  A    between atoms: _512  and  _513
REMARK  212  A    between atoms: _512  and  _515
REMARK  213  A    between atoms: _515  and  _516
REMARK  214  A    between atoms: _516  and  _517
REMARK  215  A    between atoms: _519  and  _521
REMARK  216  A    between atoms: _521  and  _522
REMARK  217  A    between atoms: _521  and  _524
REMARK  218  A    between atoms: _524  and  _525
REMARK  219  A    between atoms: _531  and  _533
REMARK  220  A    between atoms: _533  and  _534
REMARK  221  A    between atoms: _533  and  _536
REMARK  222  A    between atoms: _536  and  _537
REMARK  223  A    between atoms: _542  and  _544
REMARK  224  A    between atoms: _544  and  _545
REMARK  225  A    between atoms: _544  and  _547
REMARK  226  A    between atoms: _547  and  _548
REMARK  227  A    between atoms: _558  and  _560
REMARK  228  A    between atoms: _560  and  _561
REMARK  229  A    between atoms: _560  and  _563
REMARK  230  A    between atoms: _566  and  _568
REMARK  231  A    between atoms: _568  and  _569
REMARK  232  A    between atoms: _568  and  _571
REMARK  233  A    between atoms: _571  and  _572
REMARK  234  A    between atoms: _575  and  _577
REMARK  235  A    between atoms: _577  and  _578
REMARK  236  A    between atoms: _577  and  _580
REMARK  237  A    between atoms: _580  and  _581
REMARK  238  A    between atoms: _581  and  _582
REMARK  239  A    between atoms: _584  and  _586
REMARK  240  A    between atoms: _586  and  _587
REMARK  241  A    between atoms: _586  and  _589
REMARK  242  A    between atoms: _589  and  _590
REMARK  243  A    between atoms: _593  and  _595
REMARK  244  A    between atoms: _595  and  _596
REMARK  245  A    between atoms: _595  and  _598
REMARK  246  A    between atoms: _598  and  _599
REMARK  247  A    between atoms: _602  and  _604
REMARK  248  A    between atoms: _604  and  _605
REMARK  249  A    between atoms: _607  and  _609
REMARK  250  A    between atoms: _609  and  _610
REMARK  251  A    between atoms: _609  and  _612
REMARK  252  A    between atoms: _612  and  _613
REMARK  253  A    between atoms: _615  and  _617
REMARK  254  A    between atoms: _617  and  _618
REMARK  255  A    between atoms: _617  and  _620
REMARK  256  A    between atoms: _620  and  _621
REMARK  257  A    between atoms: _631  and  _633
REMARK  258  A    between atoms: _633  and  _634
REMARK  259  A    between atoms: _633  and  _636
REMARK  260  A    between atoms: _636  and  _637
REMARK  261  A    between atoms: _639  and  _641
REMARK  262  A    between atoms: _641  and  _642
REMARK  263  A    between atoms: _641  and  _644
REMARK  264  A    between atoms: _644  and  _645
REMARK  265  A    between atoms: _648  and  _650
REMARK  266  A    between atoms: _650  and  _651
REMARK  267  A    between atoms: _654  and  _656
REMARK  268  A    between atoms: _656  and  _657
REMARK  269  A    between atoms: _656  and  _659
REMARK  270  A    between atoms: _659  and  _660
REMARK  271  A    between atoms: _662  and  _664
REMARK  272  A    between atoms: _664  and  _665
REMARK  273  A    between atoms: _664  and  _667
REMARK  274  A    between atoms: _667  and  _668
REMARK  275  A    between atoms: _668  and  _669
REMARK  276  A    between atoms: _673  and  _674
REMARK  277  A    between atoms: _679  and  _681
REMARK  278  A    between atoms: _681  and  _682
REMARK  279  A    between atoms: _681  and  _684
REMARK  280  A    between atoms: _684  and  _685
REMARK  281  A    between atoms: _687  and  _689
REMARK  282  A    between atoms: _689  and  _690
REMARK  283  A    between atoms: _689  and  _692
REMARK  284  A    between atoms: _692  and  _693
REMARK  285  A    between atoms: _693  and  _694
REMARK  286  A    between atoms: _699  and  _701
REMARK  287  A    between atoms: _701  and  _702
REMARK  288  A    between atoms: _701  and  _704
REMARK  289  A    between atoms: _704  and  _705
REMARK  290  A    between atoms: _705  and  _706
REMARK  291  A    between atoms: _711  and  _713
REMARK  292  A    between atoms: _713  and  _714
REMARK  293  A    between atoms: _713  and  _716
REMARK  294  A    between atoms: _716  and  _717
REMARK  295  A    between atoms: _720  and  _722
REMARK  296  A    between atoms: _722  and  _723
REMARK  297  A    between atoms: _722  and  _725
REMARK  298  A    between atoms: _725  and  _726
REMARK  299  A    between atoms: _729  and  _731
REMARK  300  A    between atoms: _731  and  _732
REMARK  301  A    between atoms: _731  and  _734
REMARK  302  A    between atoms: _734  and  _735
REMARK  303  A    between atoms: _741  and  _743
REMARK  304  A    between atoms: _743  and  _744
REMARK  305  A    between atoms: _743  and  _746
REMARK  306  A    between atoms: _746  and  _747
REMARK  307  A    between atoms: _752  and  _753
REMARK  308  A    between atoms: _755  and  _757
REMARK  309  A    between atoms: _757  and  _758
REMARK  310  A    between atoms: _757  and  _760
REMARK  311  A    between atoms: _760  and  _761
REMARK  312  A    between atoms: _767  and  _769
REMARK  313  A    between atoms: _769  and  _770
REMARK  314  A    between atoms: _769  and  _772
REMARK  315  A    between atoms: _772  and  _773
REMARK  316  A    between atoms: _778  and  _780
REMARK  317  A    between atoms: _780  and  _781
REMARK  318  A    between atoms: _780  and  _783
REMARK  319  A    between atoms: _783  and  _784
REMARK  320  A    between atoms: _784  and  _785
REMARK                            x       y       z     vdW  Elec       q    Type
REMARK                         _______ _______ _______ _____ _____    ______ ____
ROOT
ATOM      1  CA  MET A   1      -2.050  62.190  31.068  0.00  0.00    +0.134 C 
ENDROOT
BRANCH   1   2
ATOM      2  N   MET A   1      -3.172  61.476  31.677  0.00  0.00    -0.239 NA
ATOM      3  H   MET A   1      -2.986  60.597  32.201  0.00  0.00    +0.142 HD
ENDBRANCH   1   2
BRANCH   1   4
ATOM      4  C   MET A   1      -1.693  61.604  29.701  0.00  0.00    +0.224 C 
ATOM      5  O   MET A   1      -1.522  60.430  29.562  0.00  0.00    -0.287 OA
ENDBRANCH   1   4
BRANCH   1   6
ATOM      6  CB  MET A   1      -0.832  62.096  32.018  0.00  0.00    +0.037 C 
BRANCH   6   7
ATOM      7  CG  MET A   1       0.324  63.041  31.591  0.00  0.00    +0.059 C 
BRANCH   7   8
ATOM      8  SD  MET A   1       1.669  63.114  32.789  0.00  0.00    -0.139 S 
ATOM      9  CE  MET A   1       0.886  64.083  34.091  0.00  0.00    +0.069 C 
ENDBRANCH   7   8
ENDBRANCH   6   7
ENDBRANCH   1   6
TORSDOF 5
REMARK  Name = ../refined-set-2016/3drf/3drf_pocket.pdb
REMARK  320 active torsions:
REMARK  status: ('A' for Active; 'I' for Inactive)
REMARK    1  A    between atoms: _1  and  _3
REMARK    2  A    between atoms: _3  and  _4
REMARK    3  A    between atoms: _3  and  _6
REMARK    4  A    between atoms: _6  and  _7
REMARK    5  A    between atoms: _12  and  _13
REMARK    6  A    between atoms: _15  and  _17
REMARK    7  A    between atoms: _17  and  _18
REMARK    8  A    between atoms: _17  and  _20
REMARK    9  A    between atoms: _20  and  _21
REMARK   10  A    between atoms: _21  and  _22
REMARK   11  A    between atoms: _27  and  _29
REMARK   12  A    between atoms: _29  and  _30
REMARK   13  A    between atoms: _29  and  _32
REMARK   14  A    between atoms: _32  and  _33
REMARK   15  A    between atoms: _35  and  _37
REMARK   16  A    between atoms: _37  and  _38
REMARK   17  A    between atoms: _37  and  _40
REMARK   18  A    between atoms: _40  and  _41
REMARK   19  A    between atoms: _44  and  _46
REMARK   20  A    between atoms: _46  and  _47
REMARK   21  A    between atoms: _46  and  _49
REMARK   22  A    between atoms: _49  and  _50
REMARK   23  A    between atoms: _52  and  _54
REMARK   24  A    between atoms: _54  and  _55
REMARK   25  A    between atoms: _54  and  _57
REMARK   26  A    between atoms: _57  and  _58
REMARK   27  A    between atoms: _60  and  _62
REMARK   28  A    between atoms: _62  and  _63
REMARK   29  A    between atoms: _65  and  _67
REMARK   30  A    between atoms: _67  and  _68
REMARK   31  A    between atoms: _67  and  _70
REMARK   32  A    between atoms: _70  and  _71
REMARK   33  A    between atoms: _73  and  _75
REMARK   34  A    between atoms: _75  and  _76
REMARK   35  A    between atoms: _75  and  _78
REMARK   36  A    between atoms: _78  and  _79
REMARK   37  A    between atoms: _84  and  _86
REMARK   38  A    between atoms: _86  and  _87
REMARK   39  A    between atoms: _86  and  _89
REMARK   40  A    between atoms: _89  and  _90
REMARK   41  A    between atoms: _93  and  _95
REMARK   42  A    between atoms: _95  and  _96
REMARK   43  A    between atoms: _99  and  _101
REMARK   44  A    between atoms: _101  and  _102
REMARK   45  A    between atoms: _101  and  _104
REMARK   46  A    between atoms: _104  and  _105
REMARK   47  A    between atoms: _108  and  _110
REMARK   48  A    between atoms: _110  and  _111
REMARK   49  A    between atoms: _110  and  _113
REMARK   50  A    between atoms: _113  and  _114
REMARK   51  A    between atoms: _120  and  _122
REMARK   52  A    between atoms: _122  and  _123
REMARK   53  A    between atoms: _126  and  _128
REMARK   54  A    between atoms: _128  and  _129
REMARK   55  A    between atoms: _128  and  _131
REMARK   56  A    between atoms: _131  and  _132
REMARK   57  A    between atoms: _135  and  _137
REMARK   58  A    between atoms: _137  and  _138
REMARK   59  A    between atoms: _140  and  _142
REMARK   60  A    between atoms: _142  and  _143
REMARK   61  A    between atoms: _142  and  _145
REMARK   62  A    between atoms: _145  and  _146
REMARK   63  A    between atoms: _146  and  _147
REMARK   64  A    between atoms: _152  and  _154
REMARK   65  A    between atoms: _154  and  _155
REMARK   66  A    between atoms: _157  and  _159
REMARK   67  A    between atoms: _159  and  _160
REMARK   68  A    between atoms: _159  and  _162
REMARK   69  A    between atoms: _162  and  _163
REMARK   70  A    between atoms: _166  and  _168
REMARK   71  A    between atoms: _168  and  _169
REMARK   72  A    between atoms: _168  and  _171
REMARK   73  A    between atoms: _171  and  _172
REMARK   74  A    between atoms: _178  and  _180
REMARK   75  A    between atoms: _180  and  _181
REMARK   76  A    between atoms: _180  and  _183
REMARK   77  A    between atoms: _183  and  _184
REMARK   78  A    between atoms: _187  and  _189
REMARK   79  A    between atoms: _189  and  _190
REMARK   80  A    between atoms: _189  and  _192
REMARK   81  A    between atoms: _192  and  _193
REMARK   82  A    between atoms: _199  and  _201
REMARK   83  A    between atoms: _201  and  _202
REMARK   84  A    between atoms: _201  and  _204
REMARK   85  A    between atoms: _204  and  _205
REMARK   86  A    between atoms: _211  and  _213
REMARK   87  A    between atoms: _213  and  _214
REMARK   88  A    between atoms: _213  and  _216
REMARK   89  A    between atoms: _216  and  _217
REMARK   90  A    between atoms: _220  and  _222
REMARK   91  A    between atoms: _222  and  _223
REMARK   92  A    between atoms: _222  and  _225
REMARK   93  A    between atoms: _225  and  _226
REMARK   94  A    between atoms: _229  and  _231
REMARK   95  A    between atoms: _231  and  _232
REMARK   96  A    between atoms: _231  and  _234
REMARK   97  A    between atoms: _234  and  _235
REMARK   98  A    between atoms: _235  and  _236
REMARK   99  A    between atoms: _236  and  _237
REMARK  100  A    between atoms: _246  and  _248
REMARK  101  A    between atoms: _248  and  _249
REMARK  102  A    between atoms: _248  and  _251
REMARK  103  A    between atoms: _251  and  _252
REMARK  104  A    between atoms: _255  and  _257
REMARK  105  A    between atoms: _257  and  _258
REMARK  106  A    between atoms: _257  and  _260
REMARK  107  A    between atoms: _260  and  _261
REMARK  108  A    between atoms: _263  and  _265
REMARK  109  A    between atoms: _265  and  _266
REMARK  110  A    between atoms: _265  and  _268
REMARK  111  A    between atoms: _268  and  _269
REMARK  112  A    between atoms: _269  and  _270
REMARK  113  A    between atoms: _275  and  _277
REMARK  114  A    between atoms: _277  and  _278
REMARK  115  A    between atoms: _277  and  _280
REMARK  116  A    between atoms: _280  and  _281
REMARK  117  A    between atoms: _283  and  _285
REMARK  118  A    between atoms: _285  and  _286
REMARK  119  A    between atoms: _288  and  _290
REMARK  120  A    between atoms: _290  and  _291
REMARK  121  A    between atoms: _290  and  _293
REMARK  122  A    between atoms: _293  and  _294
REMARK  123  A    between atoms: _299  and  _301
REMARK  124  A    between atoms: _301  and  _302
REMARK  125  A    between atoms: _304  and  _306
REMARK  126  A    between atoms: _306  and  _307
REMARK  127  A    between atoms: _306  and  _309
REMARK  128  A    between atoms: _309  and  _310
REMARK  129  A    between atoms: _315  and  _316
REMARK  130  A    between atoms: _318  and  _320
REMARK  131  A    between atoms: _320  and  _321
REMARK  132  A    between atoms: _320  and  _323
REMARK  133  A    between atoms: _323  and  _324
REMARK  134  A    between atoms: _330  and  _332
REMARK  135  A    between atoms: _332  and  _333
REMARK  136  A    between atoms: _332  and  _335
REMARK  137  A    between atoms: _335  and  _336
REMARK  138  A    between atoms: _339  and  _341
REMARK  139  A    between atoms: _341  and  _342
REMARK  140  A    between atoms: _341  and  _344
REMARK  141  A    between atoms: _344  and  _345
REMARK  142  A    between atoms: _345  and  _346
REMARK  143  A    between atoms: _349  and  _351
REMARK  144  A    between atoms: _351  and  _352
REMARK  145  A    between atoms: _351  and  _354
REMARK  146  A    between atoms: _354  and  _355
REMARK  147  A    between atoms: _358  and  _360
REMARK  148  A    between atoms: _360  and  _361
REMARK  149  A    between atoms: _360  and  _363
REMARK  150  A    between atoms: _363  and  _364
REMARK  151  A    between atoms: _367  and  _369
REMARK  152  A    between atoms: _369  and  _370
REMARK  153  A    between atoms: _372  and  _374
REMARK  154  A    between atoms: _374  and  _375
REMARK  155  A    between atoms: _374  and  _377
REMARK  156  A    between atoms: _380  and  _382
REMARK  157  A    between atoms: _382  and  _383
REMARK  158  A    between atoms: _382  and  _385
REMARK  159  A    between atoms: _385  and  _386
REMARK  160  A    between atoms: _388  and  _390
REMARK  161  A    between atoms: _390  and  _391
REMARK  162  A    between atoms: _390  and  _393
REMARK  163  A    between atoms: _393  and  _394
REMARK  164  A    between atoms: _394  and  _395
REMARK  165  A    between atoms: _397  and  _399
REMARK  166  A    between atoms: _399  and  _400
REMARK  167  A    between atoms: _399  and  _402
REMARK  168  A    between atoms: _402  and  _403
REMARK  169  A    between atoms: _408  and  _409
REMARK  170  A    between atoms: _411  and  _413
REMARK  171  A    between atoms: _413  and  _414
REMARK  172  A    between atoms: _413  and  _416
REMARK  173  A    between atoms: _416  and  _417
REMARK  174  A    between atoms: _420  and  _422
REMARK  175  A    between atoms: _422  and  _423
REMARK  176  A    between atoms: _422  and  _425
REMARK  177  A    between atoms: _425  and  _426
REMARK  178  A    between atoms: _428  and  _430
REMARK  179  A    between atoms: _430  and  _431
REMARK  180  A    between atoms: _430  and  _433
REMARK  181  A    between atoms: _433  and  _434
REMARK  182  A    between atoms: _437  and  _439
REMARK  183  A    between atoms: _439  and  _440
REMARK  184  A    between atoms: _439  and  _442
REMARK  185  A    between atoms: _442  and  _443
REMARK  186  A    between atoms: _448  and  _449
REMARK  187  A    between atoms: _451  and  _453
REMARK  188  A    between atoms: _453  and  _454
REMARK  189  A    between atoms: _453  and  _456
REMARK  190  A    between atoms: _456  and  _457
REMARK  191  A    between atoms: _459  and  _461
REMARK  192  A    between atoms: _461  and  _462
REMARK  193  A    between atoms: _461  and  _464
REMARK  194  A    between atoms: _464  and  _465
REMARK  195  A    between atoms: _471  and  _473
REMARK  196  A    between atoms: _473  and  _474
REMARK  197  A    between atoms: _473  and  _476
REMARK  198  A    between atoms: _476  and  _477
REMARK  199  A    between atoms: _477  and  _478
REMARK  200  A    between atoms: _478  and  _479
REMARK  201  A    between atoms: _488  and  _490
REMARK  202  A    between atoms: _490  and  _491
REMARK  203  A    between atoms: _490  and  _493
REMARK  204  A    between atoms: _496  and  _498
REMARK  205  A    between atoms: _498  and  _499
REMARK  206  A    between atoms: _501  and  _503
REMARK  207  A    between atoms: _503  and  _504
REMARK  208  A    between atoms: _503  and  _506
REMARK  209  A    between atoms: _506  and  _507
REMARK  210  A    between atoms: _510  and  _512
REMARK  211  A    between atoms: _512  and  _513
REMARK  212  A    between atoms: _512  and  _515
REMARK  213  A    between atoms: _515  and  _516
REMARK  214  A    between atoms: _516  and  _517
REMARK  215  A    between atoms: _519  and  _521
REMARK  216  A    between atoms: _521  and  _522
REMARK  217  A    between atoms: _521  and  _524
REMARK  218  A    between atoms: _524  and  _525
REMARK  219  A    between atoms: _531  and  _533
REMARK  220  A    between atoms: _533  and  _534
REMARK  221  A    between atoms: _533  and  _536
REMARK  222  A    between atoms: _536  and  _537
REMARK  223  A    between atoms: _542  and  _544
REMARK  224  A    between atoms: _544  and  _545
REMARK  225  A    between atoms: _544  and  _547
REMARK  226  A    between atoms: _547  and  _548
REMARK  227  A    between atoms: _558  and  _560
REMARK  228  A    between atoms: _560  and  _561
REMARK  229  A    between atoms: _560  and  _563
REMARK  230  A    between atoms: _566  and  _568
REMARK  231  A    between atoms: _568  and  _569
REMARK  232  A    between atoms: _568  and  _571
REMARK  233  A    between atoms: _571  and  _572
REMARK  234  A    between atoms: _575  and  _577
REMARK  235  A    between atoms: _577  and  _578
REMARK  236  A    between atoms: _577  and  _580
REMARK  237  A    between atoms: _580  and  _581
REMARK  238  A    between atoms: _581  and  _582
REMARK  239  A    between atoms: _584  and  _586
REMARK  240  A    between atoms: _586  and  _587
REMARK  241  A    between atoms: _586  and  _589
REMARK  242  A    between atoms: _589  and  _590
REMARK  243  A    between atoms: _593  and  _595
REMARK  244  A    between atoms: _595  and  _596
REMARK  245  A    between atoms: _595  and  _598
REMARK  246  A    between atoms: _598  and  _599
REMARK  247  A    between atoms: _602  and  _604
REMARK  248  A    between atoms: _604  and  _605
REMARK  249  A    between atoms: _607  and  _609
REMARK  250  A    between atoms: _609  and  _610
REMARK  251  A    between atoms: _609  and  _612
REMARK  252  A    between atoms: _612  and  _613
REMARK  253  A    between atoms: _615  and  _617
REMARK  254  A    between atoms: _617  and  _618
REMARK  255  A    between atoms: _617  and  _620
REMARK  256  A    between atoms: _620  and  _621
REMARK  257  A    between atoms: _631  and  _633
REMARK  258  A    between atoms: _633  and  _634
REMARK  259  A    between atoms: _633  and  _636
REMARK  260  A    between atoms: _636  and  _637
REMARK  261  A    between atoms: _639  and  _641
REMARK  262  A    between atoms: _641  and  _642
REMARK  263  A    between atoms: _641  and  _644
REMARK  264  A    between atoms: _644  and  _645
REMARK  265  A    between atoms: _648  and  _650
REMARK  266  A    between atoms: _650  and  _651
REMARK  267  A    between atoms: _654  and  _656
REMARK  268  A    between atoms: _656  and  _657
REMARK  269  A    between atoms: _656  and  _659
REMARK  270  A    between atoms: _659  and  _660
REMARK  271  A    between atoms: _662  and  _664
REMARK  272  A    between atoms: _664  and  _665
REMARK  273  A    between atoms: _664  and  _667
REMARK  274  A    between atoms: _667  and  _668
REMARK  275  A    between atoms: _668  and  _669
REMARK  276  A    between atoms: _673  and  _674
REMARK  277  A    between atoms: _679  and  _681
REMARK  278  A    between atoms: _681  and  _682
REMARK  279  A    between atoms: _681  and  _684
REMARK  280  A    between atoms: _684  and  _685
REMARK  281  A    between atoms: _687  and  _689
REMARK  282  A    between atoms: _689  and  _690
REMARK  283  A    between atoms: _689  and  _692
REMARK  284  A    between atoms: _692  and  _693
REMARK  285  A    between atoms: _693  and  _694
REMARK  286  A    between atoms: _699  and  _701
REMARK  287  A    between atoms: _701  and  _702
REMARK  288  A    between atoms: _701  and  _704
REMARK  289  A    between atoms: _704  and  _705
REMARK  290  A    between atoms: _705  and  _706
REMARK  291  A    between atoms: _711  and  _713
REMARK  292  A    between atoms: _713  and  _714
REMARK  293  A    between atoms: _713  and  _716
REMARK  294  A    between atoms: _716  and  _717
REMARK  295  A    between atoms: _720  and  _722
REMARK  296  A    between atoms: _722  and  _723
REMARK  297  A    between atoms: _722  and  _725
REMARK  298  A    between atoms: _725  and  _726
REMARK  299  A    between atoms: _729  and  _731
REMARK  300  A    between atoms: _731  and  _732
REMARK  301  A    between atoms: _731  and  _734
REMARK  302  A    between atoms: _734  and  _735
REMARK  303  A    between atoms: _741  and  _743
REMARK  304  A    between atoms: _743  and  _744
REMARK  305  A    between atoms: _743  and  _746
REMARK  306  A    between atoms: _746  and  _747
REMARK  307  A    between atoms: _752  and  _753
REMARK  308  A    between atoms: _755  and  _757
REMARK  309  A    between atoms: _757  and  _758
REMARK  310  A    between atoms: _757  and  _760
REMARK  311  A    between atoms: _760  and  _761
REMARK  312  A    between atoms: _767  and  _769
REMARK  313  A    between atoms: _769  and  _770
REMARK  314  A    between atoms: _769  and  _772
REMARK  315  A    between atoms: _772  and  _773
REMARK  316  A    between atoms: _778  and  _780
REMARK  317  A    between atoms: _780  and  _781
REMARK  318  A    between atoms: _780  and  _783
REMARK  319  A    between atoms: _783  and  _784
REMARK  320  A    between atoms: _784  and  _785
REMARK                            x       y       z     vdW  Elec       q    Type
REMARK                         _______ _______ _______ _____ _____    ______ ____
ROOT
ATOM      1  C   PHE A   1       3.060  60.428  26.386  0.00  0.00    +0.239 C 
ATOM      2  O   PHE A   1       3.937  60.309  27.165  0.00  0.00    -0.274 OA
ATOM      3  N   ASN A   2       3.149  61.215  25.313  0.00  0.00    -0.298 N 
ATOM      4  H   ASN A   2       2.343  61.308  24.662  0.00  0.00    +0.150 HD
ENDROOT
BRANCH   1   5
ATOM      5  CA  PHE A   1       1.719  59.668  26.605  0.00  0.00    +0.149 C 
BRANCH   5   6
ATOM      6  N   PHE A   1       0.496  60.479  26.544  0.00  0.00    -0.238 NA
ATOM      7  H   PHE A   1      -0.232  60.251  25.837  0.00  0.00    +0.142 HD
ENDBRANCH   5   6
BRANCH   5   8
ATOM      8  CB  PHE A   1       1.623  58.481  25.656  0.00  0.00    +0.053 C 
BRANCH   8   9
ATOM      9  CG  PHE A   1       2.887  57.625  25.625  0.00  0.00    -0.020 A 
ATOM     10  CD2 PHE A   1       3.266  56.807  26.694  0.00  0.00    -0.004 A 
ATOM     11  CE2 PHE A   1       4.448  56.023  26.611  0.00  0.00    -0.000 A 
ATOM     12  CZ  PHE A   1       5.208  56.063  25.490  0.00  0.00    -0.000 A 
ATOM     13  CE1 PHE A   1       4.837  56.860  24.448  0.00  0.00    -0.000 A 
ATOM     14  CD1 PHE A   1       3.693  57.645  24.524  0.00  0.00    -0.004 A 
ENDBRANCH   8   9
ENDBRANCH   5   8
ENDBRANCH   1   5
BRANCH   3  15
ATOM     15  CA  ASN A   2       4.394  61.949  25.058  0.00  0.00    +0.146 C 
BRANCH  15  16
ATOM     16  C   ASN A   2       4.694  62.936  26.206  0.00  0.00    +0.227 C 
ATOM     17  O   ASN A   2       5.804  63.032  26.605  0.00  0.00    -0.286 OA
ENDBRANCH  15  16
BRANCH  15  18
ATOM     18  CB  ASN A   2       4.359  62.665  23.675  0.00  0.00    +0.112 C 
BRANCH  18  19
ATOM     19  CG  ASN A   2       4.330  61.701  22.485  0.00  0.00    +0.222 C 
ATOM     20  OD1 ASN A   2       4.781  60.594  22.540  0.00  0.00    -0.275 OA
ATOM     21  ND2 ASN A   2       3.771  62.181  21.390  0.00  0.00    -0.329 N 
ATOM     22 HD21 ASN A   2       3.390  63.149  21.382  0.00  0.00    +0.145 HD
ATOM     23 HD22 ASN A   2       3.711  61.591  20.535  0.00  0.00    +0.145 HD
ENDBRANCH  18  19
ENDBRANCH  15  18
ENDBRANCH   3  15
TORSDOF 8
REMARK  Name = ../refined-set-2016/3drf/3drf_pocket.pdb
REMARK  320 active torsions:
REMARK  status: ('A' for Active; 'I' for Inactive)
REMARK    1  A    between atoms: _1  and  _3
REMARK    2  A    between atoms: _3  and  _4
REMARK    3  A    between atoms: _3  and  _6
REMARK    4  A    between atoms: _6  and  _7
REMARK    5  A    between atoms: _12  and  _13
REMARK    6  A    between atoms: _15  and  _17
REMARK    7  A    between atoms: _17  and  _18
REMARK    8  A    between atoms: _17  and  _20
REMARK    9  A    between atoms: _20  and  _21
REMARK   10  A    between atoms: _21  and  _22
REMARK   11  A    between atoms: _27  and  _29
REMARK   12  A    between atoms: _29  and  _30
REMARK   13  A    between atoms: _29  and  _32
REMARK   14  A    between atoms: _32  and  _33
REMARK   15  A    between atoms: _35  and  _37
REMARK   16  A    between atoms: _37  and  _38
REMARK   17  A    between atoms: _37  and  _40
REMARK   18  A    between atoms: _40  and  _41
REMARK   19  A    between atoms: _44  and  _46
REMARK   20  A    between atoms: _46  and  _47
REMARK   21  A    between atoms: _46  and  _49
REMARK   22  A    between atoms: _49  and  _50
REMARK   23  A    between atoms: _52  and  _54
REMARK   24  A    between atoms: _54  and  _55
REMARK   25  A    between atoms: _54  and  _57
REMARK   26  A    between atoms: _57  and  _58
REMARK   27  A    between atoms: _60  and  _62
REMARK   28  A    between atoms: _62  and  _63
REMARK   29  A    between atoms: _65  and  _67
REMARK   30  A    between atoms: _67  and  _68
REMARK   31  A    between atoms: _67  and  _70
REMARK   32  A    between atoms: _70  and  _71
REMARK   33  A    between atoms: _73  and  _75
REMARK   34  A    between atoms: _75  and  _76
REMARK   35  A    between atoms: _75  and  _78
REMARK   36  A    between atoms: _78  and  _79
REMARK   37  A    between atoms: _84  and  _86
REMARK   38  A    between atoms: _86  and  _87
REMARK   39  A    between atoms: _86  and  _89
REMARK   40  A    between atoms: _89  and  _90
REMARK   41  A    between atoms: _93  and  _95
REMARK   42  A    between atoms: _95  and  _96
REMARK   43  A    between atoms: _99  and  _101
REMARK   44  A    between atoms: _101  and  _102
REMARK   45  A    between atoms: _101  and  _104
REMARK   46  A    between atoms: _104  and  _105
REMARK   47  A    between atoms: _108  and  _110
REMARK   48  A    between atoms: _110  and  _111
REMARK   49  A    between atoms: _110  and  _113
REMARK   50  A    between atoms: _113  and  _114
REMARK   51  A    between atoms: _120  and  _122
REMARK   52  A    between atoms: _122  and  _123
REMARK   53  A    between atoms: _126  and  _128
REMARK   54  A    between atoms: _128  and  _129
REMARK   55  A    between atoms: _128  and  _131
REMARK   56  A    between atoms: _131  and  _132
REMARK   57  A    between atoms: _135  and  _137
REMARK   58  A    between atoms: _137  and  _138
REMARK   59  A    between atoms: _140  and  _142
REMARK   60  A    between atoms: _142  and  _143
REMARK   61  A    between atoms: _142  and  _145
REMARK   62  A    between atoms: _145  and  _146
REMARK   63  A    between atoms: _146  and  _147
REMARK   64  A    between atoms: _152  and  _154
REMARK   65  A    between atoms: _154  and  _155
REMARK   66  A    between atoms: _157  and  _159
REMARK   67  A    between atoms: _159  and  _160
REMARK   68  A    between atoms: _159  and  _162
REMARK   69  A    between atoms: _162  and  _163
REMARK   70  A    between atoms: _166  and  _168
REMARK   71  A    between atoms: _168  and  _169
REMARK   72  A    between atoms: _168  and  _171
REMARK   73  A    between atoms: _171  and  _172
REMARK   74  A    between atoms: _178  and  _180
REMARK   75  A    between atoms: _180  and  _181
REMARK   76  A    between atoms: _180  and  _183
REMARK   77  A    between atoms: _183  and  _184
REMARK   78  A    between atoms: _187  and  _189
REMARK   79  A    between atoms: _189  and  _190
REMARK   80  A    between atoms: _189  and  _192
REMARK   81  A    between atoms: _192  and  _193
REMARK   82  A    between atoms: _199  and  _201
REMARK   83  A    between atoms: _201  and  _202
REMARK   84  A    between atoms: _201  and  _204
REMARK   85  A    between atoms: _204  and  _205
REMARK   86  A    between atoms: _211  and  _213
REMARK   87  A    between atoms: _213  and  _214
REMARK   88  A    between atoms: _213  and  _216
REMARK   89  A    between atoms: _216  and  _217
REMARK   90  A    between atoms: _220  and  _222
REMARK   91  A    between atoms: _222  and  _223
REMARK   92  A    between atoms: _222  and  _225
REMARK   93  A    between atoms: _225  and  _226
REMARK   94  A    between atoms: _229  and  _231
REMARK   95  A    between atoms: _231  and  _232
REMARK   96  A    between atoms: _231  and  _234
REMARK   97  A    between atoms: _234  and  _235
REMARK   98  A    between atoms: _235  and  _236
REMARK   99  A    between atoms: _236  and  _237
REMARK  100  A    between atoms: _246  and  _248
REMARK  101  A    between atoms: _248  and  _249
REMARK  102  A    between atoms: _248  and  _251
REMARK  103  A    between atoms: _251  and  _252
REMARK  104  A    between atoms: _255  and  _257
REMARK  105  A    between atoms: _257  and  _258
REMARK  106  A    between atoms: _257  and  _260
REMARK  107  A    between atoms: _260  and  _261
REMARK  108  A    between atoms: _263  and  _265
REMARK  109  A    between atoms: _265  and  _266
REMARK  110  A    between atoms: _265  and  _268
REMARK  111  A    between atoms: _268  and  _269
REMARK  112  A    between atoms: _269  and  _270
REMARK  113  A    between atoms: _275  and  _277
REMARK  114  A    between atoms: _277  and  _278
REMARK  115  A    between atoms: _277  and  _280
REMARK  116  A    between atoms: _280  and  _281
REMARK  117  A    between atoms: _283  and  _285
REMARK  118  A    between atoms: _285  and  _286
REMARK  119  A    between atoms: _288  and  _290
REMARK  120  A    between atoms: _290  and  _291
REMARK  121  A    between atoms: _290  and  _293
REMARK  122  A    between atoms: _293  and  _294
REMARK  123  A    between atoms: _299  and  _301
REMARK  124  A    between atoms: _301  and  _302
REMARK  125  A    between atoms: _304  and  _306
REMARK  126  A    between atoms: _306  and  _307
REMARK  127  A    between atoms: _306  and  _309
REMARK  128  A    between atoms: _309  and  _310
REMARK  129  A    between atoms: _315  and  _316
REMARK  130  A    between atoms: _318  and  _320
REMARK  131  A    between atoms: _320  and  _321
REMARK  132  A    between atoms: _320  and  _323
REMARK  133  A    between atoms: _323  and  _324
REMARK  134  A    between atoms: _330  and  _332
REMARK  135  A    between atoms: _332  and  _333
REMARK  136  A    between atoms: _332  and  _335
REMARK  137  A    between atoms: _335  and  _336
REMARK  138  A    between atoms: _339  and  _341
REMARK  139  A    between atoms: _341  and  _342
REMARK  140  A    between atoms: _341  and  _344
REMARK  141  A    between atoms: _344  and  _345
REMARK  142  A    between atoms: _345  and  _346
REMARK  143  A    between atoms: _349  and  _351
REMARK  144  A    between atoms: _351  and  _352
REMARK  145  A    between atoms: _351  and  _354
REMARK  146  A    between atoms: _354  and  _355
REMARK  147  A    between atoms: _358  and  _360
REMARK  148  A    between atoms: _360  and  _361
REMARK  149  A    between atoms: _360  and  _363
REMARK  150  A    between atoms: _363  and  _364
REMARK  151  A    between atoms: _367  and  _369
REMARK  152  A    between atoms: _369  and  _370
REMARK  153  A    between atoms: _372  and  _374
REMARK  154  A    between atoms: _374  and  _375
REMARK  155  A    between atoms: _374  and  _377
REMARK  156  A    between atoms: _380  and  _382
REMARK  157  A    between atoms: _382  and  _383
REMARK  158  A    between atoms: _382  and  _385
REMARK  159  A    between atoms: _385  and  _386
REMARK  160  A    between atoms: _388  and  _390
REMARK  161  A    between atoms: _390  and  _391
REMARK  162  A    between atoms: _390  and  _393
REMARK  163  A    between atoms: _393  and  _394
REMARK  164  A    between atoms: _394  and  _395
REMARK  165  A    between atoms: _397  and  _399
REMARK  166  A    between atoms: _399  and  _400
REMARK  167  A    between atoms: _399  and  _402
REMARK  168  A    between atoms: _402  and  _403
REMARK  169  A    between atoms: _408  and  _409
REMARK  170  A    between atoms: _411  and  _413
REMARK  171  A    between atoms: _413  and  _414
REMARK  172  A    between atoms: _413  and  _416
REMARK  173  A    between atoms: _416  and  _417
REMARK  174  A    between atoms: _420  and  _422
REMARK  175  A    between atoms: _422  and  _423
REMARK  176  A    between atoms: _422  and  _425
REMARK  177  A    between atoms: _425  and  _426
REMARK  178  A    between atoms: _428  and  _430
REMARK  179  A    between atoms: _430  and  _431
REMARK  180  A    between atoms: _430  and  _433
REMARK  181  A    between atoms: _433  and  _434
REMARK  182  A    between atoms: _437  and  _439
REMARK  183  A    between atoms: _439  and  _440
REMARK  184  A    between atoms: _439  and  _442
REMARK  185  A    between atoms: _442  and  _443
REMARK  186  A    between atoms: _448  and  _449
REMARK  187  A    between atoms: _451  and  _453
REMARK  188  A    between atoms: _453  and  _454
REMARK  189  A    between atoms: _453  and  _456
REMARK  190  A    between atoms: _456  and  _457
REMARK  191  A    between atoms: _459  and  _461
REMARK  192  A    between atoms: _461  and  _462
REMARK  193  A    between atoms: _461  and  _464
REMARK  194  A    between atoms: _464  and  _465
REMARK  195  A    between atoms: _471  and  _473
REMARK  196  A    between atoms: _473  and  _474
REMARK  197  A    between atoms: _473  and  _476
REMARK  198  A    between atoms: _476  and  _477
REMARK  199  A    between atoms: _477  and  _478
REMARK  200  A    between atoms: _478  and  _479
REMARK  201  A    between atoms: _488  and  _490
REMARK  202  A    between atoms: _490  and  _491
REMARK  203  A    between atoms: _490  and  _493
REMARK  204  A    between atoms: _496  and  _498
REMARK  205  A    between atoms: _498  and  _499
REMARK  206  A    between atoms: _501  and  _503
REMARK  207  A    between atoms: _503  and  _504
REMARK  208  A    between atoms: _503  and  _506
REMARK  209  A    between atoms: _506  and  _507
REMARK  210  A    between atoms: _510  and  _512
REMARK  211  A    between atoms: _512  and  _513
REMARK  212  A    between atoms: _512  and  _515
REMARK  213  A    between atoms: _515  and  _516
REMARK  214  A    between atoms: _516  and  _517
REMARK  215  A    between atoms: _519  and  _521
REMARK  216  A    between atoms: _521  and  _522
REMARK  217  A    between atoms: _521  and  _524
REMARK  218  A    between atoms: _524  and  _525
REMARK  219  A    between atoms: _531  and  _533
REMARK  220  A    between atoms: _533  and  _534
REMARK  221  A    between atoms: _533  and  _536
REMARK  222  A    between atoms: _536  and  _537
REMARK  223  A    between atoms: _542  and  _544
REMARK  224  A    between atoms: _544  and  _545
REMARK  225  A    between atoms: _544  and  _547
REMARK  226  A    between atoms: _547  and  _548
REMARK  227  A    between atoms: _558  and  _560
REMARK  228  A    between atoms: _560  and  _561
REMARK  229  A    between atoms: _560  and  _563
REMARK  230  A    between atoms: _566  and  _568
REMARK  231  A    between atoms: _568  and  _569
REMARK  232  A    between atoms: _568  and  _571
REMARK  233  A    between atoms: _571  and  _572
REMARK  234  A    between atoms: _575  and  _577
REMARK  235  A    between atoms: _577  and  _578
REMARK  236  A    between atoms: _577  and  _580
REMARK  237  A    between atoms: _580  and  _581
REMARK  238  A    between atoms: _581  and  _582
REMARK  239  A    between atoms: _584  and  _586
REMARK  240  A    between atoms: _586  and  _587
REMARK  241  A    between atoms: _586  and  _589
REMARK  242  A    between atoms: _589  and  _590
REMARK  243  A    between atoms: _593  and  _595
REMARK  244  A    between atoms: _595  and  _596
REMARK  245  A    between atoms: _595  and  _598
REMARK  246  A    between atoms: _598  and  _599
REMARK  247  A    between atoms: _602  and  _604
REMARK  248  A    between atoms: _604  and  _605
REMARK  249  A    between atoms: _607  and  _609
REMARK  250  A    between atoms: _609  and  _610
REMARK  251  A    between atoms: _609  and  _612
REMARK  252  A    between atoms: _612  and  _613
REMARK  253  A    between atoms: _615  and  _617
REMARK  254  A    between atoms: _617  and  _618
REMARK  255  A    between atoms: _617  and  _620
REMARK  256  A    between atoms: _620  and  _621
REMARK  257  A    between atoms: _631  and  _633
REMARK  258  A    between atoms: _633  and  _634
REMARK  259  A    between atoms: _633  and  _636
REMARK  260  A    between atoms: _636  and  _637
REMARK  261  A    between atoms: _639  and  _641
REMARK  262  A    between atoms: _641  and  _642
REMARK  263  A    between atoms: _641  and  _644
REMARK  264  A    between atoms: _644  and  _645
REMARK  265  A    between atoms: _648  and  _650
REMARK  266  A    between atoms: _650  and  _651
REMARK  267  A    between atoms: _654  and  _656
REMARK  268  A    between atoms: _656  and  _657
REMARK  269  A    between atoms: _656  and  _659
REMARK  270  A    between atoms: _659  and  _660
REMARK  271  A    between atoms: _662  and  _664
REMARK  272  A    between atoms: _664  and  _665
REMARK  273  A    between atoms: _664  and  _667
REMARK  274  A    between atoms: _667  and  _668
REMARK  275  A    between atoms: _668  and  _669
REMARK  276  A    between atoms: _673  and  _674
REMARK  277  A    between atoms: _679  and  _681
REMARK  278  A    between atoms: _681  and  _682
REMARK  279  A    between atoms: _681  and  _684
REMARK  280  A    between atoms: _684  and  _685
REMARK  281  A    between atoms: _687  and  _689
REMARK  282  A    between atoms: _689  and  _690
REMARK  283  A    between atoms: _689  and  _692
REMARK  284  A    between atoms: _692  and  _693
REMARK  285  A    between atoms: _693  and  _694
REMARK  286  A    between atoms: _699  and  _701
REMARK  287  A    between atoms: _701  and  _702
REMARK  288  A    between atoms: _701  and  _704
REMARK  289  A    between atoms: _704  and  _705
REMARK  290  A    between atoms: _705  and  _706
REMARK  291  A    between atoms: _711  and  _713
REMARK  292  A    between atoms: _713  and  _714
REMARK  293  A    between atoms: _713  and  _716
REMARK  294  A    between atoms: _716  and  _717
REMARK  295  A    between atoms: _720  and  _722
REMARK  296  A    between atoms: _722  and  _723
REMARK  297  A    between atoms: _722  and  _725
REMARK  298  A    between atoms: _725  and  _726
REMARK  299  A    between atoms: _729  and  _731
REMARK  300  A    between atoms: _731  and  _732
REMARK  301  A    between atoms: _731  and  _734
REMARK  302  A    between atoms: _734  and  _735
REMARK  303  A    between atoms: _741  and  _743
REMARK  304  A    between atoms: _743  and  _744
REMARK  305  A    between atoms: _743  and  _746
REMARK  306  A    between atoms: _746  and  _747
REMARK  307  A    between atoms: _752  and  _753
REMARK  308  A    between atoms: _755  and  _757
REMARK  309  A    between atoms: _757  and  _758
REMARK  310  A    between atoms: _757  and  _760
REMARK  311  A    between atoms: _760  and  _761
REMARK  312  A    between atoms: _767  and  _769
REMARK  313  A    between atoms: _769  and  _770
REMARK  314  A    between atoms: _769  and  _772
REMARK  315  A    between atoms: _772  and  _773
REMARK  316  A    between atoms: _778  and  _780
REMARK  317  A    between atoms: _780  and  _781
REMARK  318  A    between atoms: _780  and  _783
REMARK  319  A    between atoms: _783  and  _784
REMARK  320  A    between atoms: _784  and  _785
REMARK                            x       y       z     vdW  Elec       q    Type
REMARK                         _______ _______ _______ _____ _____    ______ ____
ROOT
ATOM      1  C   TRP A   1       5.635  61.305  30.362  0.00  0.00    +0.239 C 
ATOM      2  O   TRP A   1       6.342  61.376  31.293  0.00  0.00    -0.274 OA
ATOM      3  N   VAL A   2       6.068  60.913  29.178  0.00  0.00    -0.297 N 
ATOM      4  H   VAL A   2       5.403  60.872  28.379  0.00  0.00    +0.150 HD
ENDROOT
BRANCH   1   5
ATOM      5  CA  TRP A   1       4.150  61.706  30.464  0.00  0.00    +0.149 C 
BRANCH   5   6
ATOM      6  N   TRP A   1       3.756  62.552  29.316  0.00  0.00    -0.238 NA
ATOM      7  H   TRP A   1       3.018  62.214  28.665  0.00  0.00    +0.142 HD
ENDBRANCH   5   6
BRANCH   5   8
ATOM      8  CB  TRP A   1       3.267  60.477  30.510  0.00  0.00    +0.054 C 
BRANCH   8   9
ATOM      9  CG  TRP A   1       3.625  59.486  31.646  0.00  0.00    -0.002 A 
ATOM     10  CD1 TRP A   1       3.186  59.508  32.915  0.00  0.00    +0.068 A 
ATOM     11  NE1 TRP A   1       3.708  58.472  33.606  0.00  0.00    -0.352 N 
ATOM     12  HE1 TRP A   1       3.526  58.265  34.609  0.00  0.00    +0.166 HD
ATOM     13  CE2 TRP A   1       4.512  57.739  32.781  0.00  0.00    +0.056 A 
ATOM     14  CZ2 TRP A   1       5.282  56.595  33.030  0.00  0.00    +0.017 A 
ATOM     15  CH2 TRP A   1       5.971  56.072  31.990  0.00  0.00    +0.001 A 
ATOM     16  CZ3 TRP A   1       5.948  56.691  30.709  0.00  0.00    +0.000 A 
ATOM     17  CE3 TRP A   1       5.205  57.830  30.474  0.00  0.00    +0.001 A 
ATOM     18  CD2 TRP A   1       4.479  58.375  31.529  0.00  0.00    +0.013 A 
ENDBRANCH   8   9
ENDBRANCH   5   8
ENDBRANCH   1   5
BRANCH   3  19
ATOM     19  CA  VAL A   2       7.466  60.535  28.968  0.00  0.00    +0.148 C 
BRANCH  19  20
ATOM     20  C   VAL A   2       8.381  61.731  29.305  0.00  0.00    +0.241 C 
ATOM     21  O   VAL A   2       9.357  61.577  30.005  0.00  0.00    -0.273 OA
ATOM     22  N   ASP A   3       8.014  62.930  28.840  0.00  0.00    -0.298 N 
ATOM     23  H   ASP A   3       7.166  63.007  28.243  0.00  0.00    +0.150 HD
BRANCH  22  24
ATOM     24  CA  ASP A   3       8.797  64.159  29.161  0.00  0.00    +0.148 C 
BRANCH  24  25
ATOM     25  C   ASP A   3       8.841  64.354  30.692  0.00  0.00    +0.227 C 
ATOM     26  O   ASP A   3       9.851  64.646  31.236  0.00  0.00    -0.286 OA
ENDBRANCH  24  25
BRANCH  24  27
ATOM     27  CB  ASP A   3       8.188  65.407  28.475  0.00  0.00    +0.142 C 
BRANCH  27  28
ATOM     28  CG  ASP A   3       8.393  65.416  26.981  0.00  0.00    +0.367 C 
ATOM     29  OD2 ASP A   3       9.252  64.711  26.465  0.00  0.00    -0.246 OA
ATOM     30  OD1 ASP A   3       7.609  66.118  26.413  0.00  0.00    -0.246 OA
ENDBRANCH  27  28
ENDBRANCH  24  27
ENDBRANCH  22  24
ENDBRANCH  19  20
BRANCH  19  31
ATOM     31  CB  VAL A   2       7.769  60.017  27.524  0.00  0.00    +0.027 C 
ATOM     32  CG2 VAL A   2       9.299  59.713  27.376  0.00  0.00    +0.002 C 
ATOM     33  CG1 VAL A   2       6.979  58.729  27.237  0.00  0.00    +0.002 C 
ENDBRANCH  19  31
ENDBRANCH   3  19
TORSDOF 11
REMARK  Name = ../refined-set-2016/3drf/3drf_pocket.pdb
REMARK  320 active torsions:
REMARK  status: ('A' for Active; 'I' for Inactive)
REMARK    1  A    between atoms: _1  and  _3
REMARK    2  A    between atoms: _3  and  _4
REMARK    3  A    between atoms: _3  and  _6
REMARK    4  A    between atoms: _6  and  _7
REMARK    5  A    between atoms: _12  and  _13
REMARK    6  A    between atoms: _15  and  _17
REMARK    7  A    between atoms: _17  and  _18
REMARK    8  A    between atoms: _17  and  _20
REMARK    9  A    between atoms: _20  and  _21
REMARK   10  A    between atoms: _21  and  _22
REMARK   11  A    between atoms: _27  and  _29
REMARK   12  A    between atoms: _29  and  _30
REMARK   13  A    between atoms: _29  and  _32
REMARK   14  A    between atoms: _32  and  _33
REMARK   15  A    between atoms: _35  and  _37
REMARK   16  A    between atoms: _37  and  _38
REMARK   17  A    between atoms: _37  and  _40
REMARK   18  A    between atoms: _40  and  _41
REMARK   19  A    between atoms: _44  and  _46
REMARK   20  A    between atoms: _46  and  _47
REMARK   21  A    between atoms: _46  and  _49
REMARK   22  A    between atoms: _49  and  _50
REMARK   23  A    between atoms: _52  and  _54
REMARK   24  A    between atoms: _54  and  _55
REMARK   25  A    between atoms: _54  and  _57
REMARK   26  A    between atoms: _57  and  _58
REMARK   27  A    between atoms: _60  and  _62
REMARK   28  A    between atoms: _62  and  _63
REMARK   29  A    between atoms: _65  and  _67
REMARK   30  A    between atoms: _67  and  _68
REMARK   31  A    between atoms: _67  and  _70
REMARK   32  A    between atoms: _70  and  _71
REMARK   33  A    between atoms: _73  and  _75
REMARK   34  A    between atoms: _75  and  _76
REMARK   35  A    between atoms: _75  and  _78
REMARK   36  A    between atoms: _78  and  _79
REMARK   37  A    between atoms: _84  and  _86
REMARK   38  A    between atoms: _86  and  _87
REMARK   39  A    between atoms: _86  and  _89
REMARK   40  A    between atoms: _89  and  _90
REMARK   41  A    between atoms: _93  and  _95
REMARK   42  A    between atoms: _95  and  _96
REMARK   43  A    between atoms: _99  and  _101
REMARK   44  A    between atoms: _101  and  _102
REMARK   45  A    between atoms: _101  and  _104
REMARK   46  A    between atoms: _104  and  _105
REMARK   47  A    between atoms: _108  and  _110
REMARK   48  A    between atoms: _110  and  _111
REMARK   49  A    between atoms: _110  and  _113
REMARK   50  A    between atoms: _113  and  _114
REMARK   51  A    between atoms: _120  and  _122
REMARK   52  A    between atoms: _122  and  _123
REMARK   53  A    between atoms: _126  and  _128
REMARK   54  A    between atoms: _128  and  _129
REMARK   55  A    between atoms: _128  and  _131
REMARK   56  A    between atoms: _131  and  _132
REMARK   57  A    between atoms: _135  and  _137
REMARK   58  A    between atoms: _137  and  _138
REMARK   59  A    between atoms: _140  and  _142
REMARK   60  A    between atoms: _142  and  _143
REMARK   61  A    between atoms: _142  and  _145
REMARK   62  A    between atoms: _145  and  _146
REMARK   63  A    between atoms: _146  and  _147
REMARK   64  A    between atoms: _152  and  _154
REMARK   65  A    between atoms: _154  and  _155
REMARK   66  A    between atoms: _157  and  _159
REMARK   67  A    between atoms: _159  and  _160
REMARK   68  A    between atoms: _159  and  _162
REMARK   69  A    between atoms: _162  and  _163
REMARK   70  A    between atoms: _166  and  _168
REMARK   71  A    between atoms: _168  and  _169
REMARK   72  A    between atoms: _168  and  _171
REMARK   73  A    between atoms: _171  and  _172
REMARK   74  A    between atoms: _178  and  _180
REMARK   75  A    between atoms: _180  and  _181
REMARK   76  A    between atoms: _180  and  _183
REMARK   77  A    between atoms: _183  and  _184
REMARK   78  A    between atoms: _187  and  _189
REMARK   79  A    between atoms: _189  and  _190
REMARK   80  A    between atoms: _189  and  _192
REMARK   81  A    between atoms: _192  and  _193
REMARK   82  A    between atoms: _199  and  _201
REMARK   83  A    between atoms: _201  and  _202
REMARK   84  A    between atoms: _201  and  _204
REMARK   85  A    between atoms: _204  and  _205
REMARK   86  A    between atoms: _211  and  _213
REMARK   87  A    between atoms: _213  and  _214
REMARK   88  A    between atoms: _213  and  _216
REMARK   89  A    between atoms: _216  and  _217
REMARK   90  A    between atoms: _220  and  _222
REMARK   91  A    between atoms: _222  and  _223
REMARK   92  A    between atoms: _222  and  _225
REMARK   93  A    between atoms: _225  and  _226
REMARK   94  A    between atoms: _229  and  _231
REMARK   95  A    between atoms: _231  and  _232
REMARK   96  A    between atoms: _231  and  _234
REMARK   97  A    between atoms: _234  and  _235
REMARK   98  A    between atoms: _235  and  _236
REMARK   99  A    between atoms: _236  and  _237
REMARK  100  A    between atoms: _246  and  _248
REMARK  101  A    between atoms: _248  and  _249
REMARK  102  A    between atoms: _248  and  _251
REMARK  103  A    between atoms: _251  and  _252
REMARK  104  A    between atoms: _255  and  _257
REMARK  105  A    between atoms: _257  and  _258
REMARK  106  A    between atoms: _257  and  _260
REMARK  107  A    between atoms: _260  and  _261
REMARK  108  A    between atoms: _263  and  _265
REMARK  109  A    between atoms: _265  and  _266
REMARK  110  A    between atoms: _265  and  _268
REMARK  111  A    between atoms: _268  and  _269
REMARK  112  A    between atoms: _269  and  _270
REMARK  113  A    between atoms: _275  and  _277
REMARK  114  A    between atoms: _277  and  _278
REMARK  115  A    between atoms: _277  and  _280
REMARK  116  A    between atoms: _280  and  _281
REMARK  117  A    between atoms: _283  and  _285
REMARK  118  A    between atoms: _285  and  _286
REMARK  119  A    between atoms: _288  and  _290
REMARK  120  A    between atoms: _290  and  _291
REMARK  121  A    between atoms: _290  and  _293
REMARK  122  A    between atoms: _293  and  _294
REMARK  123  A    between atoms: _299  and  _301
REMARK  124  A    between atoms: _301  and  _302
REMARK  125  A    between atoms: _304  and  _306
REMARK  126  A    between atoms: _306  and  _307
REMARK  127  A    between atoms: _306  and  _309
REMARK  128  A    between atoms: _309  and  _310
REMARK  129  A    between atoms: _315  and  _316
REMARK  130  A    between atoms: _318  and  _320
REMARK  131  A    between atoms: _320  and  _321
REMARK  132  A    between atoms: _320  and  _323
REMARK  133  A    between atoms: _323  and  _324
REMARK  134  A    between atoms: _330  and  _332
REMARK  135  A    between atoms: _332  and  _333
REMARK  136  A    between atoms: _332  and  _335
REMARK  137  A    between atoms: _335  and  _336
REMARK  138  A    between atoms: _339  and  _341
REMARK  139  A    between atoms: _341  and  _342
REMARK  140  A    between atoms: _341  and  _344
REMARK  141  A    between atoms: _344  and  _345
REMARK  142  A    between atoms: _345  and  _346
REMARK  143  A    between atoms: _349  and  _351
REMARK  144  A    between atoms: _351  and  _352
REMARK  145  A    between atoms: _351  and  _354
REMARK  146  A    between atoms: _354  and  _355
REMARK  147  A    between atoms: _358  and  _360
REMARK  148  A    between atoms: _360  and  _361
REMARK  149  A    between atoms: _360  and  _363
REMARK  150  A    between atoms: _363  and  _364
REMARK  151  A    between atoms: _367  and  _369
REMARK  152  A    between atoms: _369  and  _370
REMARK  153  A    between atoms: _372  and  _374
REMARK  154  A    between atoms: _374  and  _375
REMARK  155  A    between atoms: _374  and  _377
REMARK  156  A    between atoms: _380  and  _382
REMARK  157  A    between atoms: _382  and  _383
REMARK  158  A    between atoms: _382  and  _385
REMARK  159  A    between atoms: _385  and  _386
REMARK  160  A    between atoms: _388  and  _390
REMARK  161  A    between atoms: _390  and  _391
REMARK  162  A    between atoms: _390  and  _393
REMARK  163  A    between atoms: _393  and  _394
REMARK  164  A    between atoms: _394  and  _395
REMARK  165  A    between atoms: _397  and  _399
REMARK  166  A    between atoms: _399  and  _400
REMARK  167  A    between atoms: _399  and  _402
REMARK  168  A    between atoms: _402  and  _403
REMARK  169  A    between atoms: _408  and  _409
REMARK  170  A    between atoms: _411  and  _413
REMARK  171  A    between atoms: _413  and  _414
REMARK  172  A    between atoms: _413  and  _416
REMARK  173  A    between atoms: _416  and  _417
REMARK  174  A    between atoms: _420  and  _422
REMARK  175  A    between atoms: _422  and  _423
REMARK  176  A    between atoms: _422  and  _425
REMARK  177  A    between atoms: _425  and  _426
REMARK  178  A    between atoms: _428  and  _430
REMARK  179  A    between atoms: _430  and  _431
REMARK  180  A    between atoms: _430  and  _433
REMARK  181  A    between atoms: _433  and  _434
REMARK  182  A    between atoms: _437  and  _439
REMARK  183  A    between atoms: _439  and  _440
REMARK  184  A    between atoms: _439  and  _442
REMARK  185  A    between atoms: _442  and  _443
REMARK  186  A    between atoms: _448  and  _449
REMARK  187  A    between atoms: _451  and  _453
REMARK  188  A    between atoms: _453  and  _454
REMARK  189  A    between atoms: _453  and  _456
REMARK  190  A    between atoms: _456  and  _457
REMARK  191  A    between atoms: _459  and  _461
REMARK  192  A    between atoms: _461  and  _462
REMARK  193  A    between atoms: _461  and  _464
REMARK  194  A    between atoms: _464  and  _465
REMARK  195  A    between atoms: _471  and  _473
REMARK  196  A    between atoms: _473  and  _474
REMARK  197  A    between atoms: _473  and  _476
REMARK  198  A    between atoms: _476  and  _477
REMARK  199  A    between atoms: _477  and  _478
REMARK  200  A    between atoms: _478  and  _479
REMARK  201  A    between atoms: _488  and  _490
REMARK  202  A    between atoms: _490  and  _491
REMARK  203  A    between atoms: _490  and  _493
REMARK  204  A    between atoms: _496  and  _498
REMARK  205  A    between atoms: _498  and  _499
REMARK  206  A    between atoms: _501  and  _503
REMARK  207  A    between atoms: _503  and  _504
REMARK  208  A    between atoms: _503  and  _506
REMARK  209  A    between atoms: _506  and  _507
REMARK  210  A    between atoms: _510  and  _512
REMARK  211  A    between atoms: _512  and  _513
REMARK  212  A    between atoms: _512  and  _515
REMARK  213  A    between atoms: _515  and  _516
REMARK  214  A    between atoms: _516  and  _517
REMARK  215  A    between atoms: _519  and  _521
REMARK  216  A    between atoms: _521  and  _522
REMARK  217  A    between atoms: _521  and  _524
REMARK  218  A    between atoms: _524  and  _525
REMARK  219  A    between atoms: _531  and  _533
REMARK  220  A    between atoms: _533  and  _534
REMARK  221  A    between atoms: _533  and  _536
REMARK  222  A    between atoms: _536  and  _537
REMARK  223  A    between atoms: _542  and  _544
REMARK  224  A    between atoms: _544  and  _545
REMARK  225  A    between atoms: _544  and  _547
REMARK  226  A    between atoms: _547  and  _548
REMARK  227  A    between atoms: _558  and  _560
REMARK  228  A    between atoms: _560  and  _561
REMARK  229  A    between atoms: _560  and  _563
REMARK  230  A    between atoms: _566  and  _568
REMARK  231  A    between atoms: _568  and  _569
REMARK  232  A    between atoms: _568  and  _571
REMARK  233  A    between atoms: _571  and  _572
REMARK  234  A    between atoms: _575  and  _577
REMARK  235  A    between atoms: _577  and  _578
REMARK  236  A    between atoms: _577  and  _580
REMARK  237  A    between atoms: _580  and  _581
REMARK  238  A    between atoms: _581  and  _582
REMARK  239  A    between atoms: _584  and  _586
REMARK  240  A    between atoms: _586  and  _587
REMARK  241  A    between atoms: _586  and  _589
REMARK  242  A    between atoms: _589  and  _590
REMARK  243  A    between atoms: _593  and  _595
REMARK  244  A    between atoms: _595  and  _596
REMARK  245  A    between atoms: _595  and  _598
REMARK  246  A    between atoms: _598  and  _599
REMARK  247  A    between atoms: _602  and  _604
REMARK  248  A    between atoms: _604  and  _605
REMARK  249  A    between atoms: _607  and  _609
REMARK  250  A    between atoms: _609  and  _610
REMARK  251  A    between atoms: _609  and  _612
REMARK  252  A    between atoms: _612  and  _613
REMARK  253  A    between atoms: _615  and  _617
REMARK  254  A    between atoms: _617  and  _618
REMARK  255  A    between atoms: _617  and  _620
REMARK  256  A    between atoms: _620  and  _621
REMARK  257  A    between atoms: _631  and  _633
REMARK  258  A    between atoms: _633  and  _634
REMARK  259  A    between atoms: _633  and  _636
REMARK  260  A    between atoms: _636  and  _637
REMARK  261  A    between atoms: _639  and  _641
REMARK  262  A    between atoms: _641  and  _642
REMARK  263  A    between atoms: _641  and  _644
REMARK  264  A    between atoms: _644  and  _645
REMARK  265  A    between atoms: _648  and  _650
REMARK  266  A    between atoms: _650  and  _651
REMARK  267  A    between atoms: _654  and  _656
REMARK  268  A    between atoms: _656  and  _657
REMARK  269  A    between atoms: _656  and  _659
REMARK  270  A    between atoms: _659  and  _660
REMARK  271  A    between atoms: _662  and  _664
REMARK  272  A    between atoms: _664  and  _665
REMARK  273  A    between atoms: _664  and  _667
REMARK  274  A    between atoms: _667  and  _668
REMARK  275  A    between atoms: _668  and  _669
REMARK  276  A    between atoms: _673  and  _674
REMARK  277  A    between atoms: _679  and  _681
REMARK  278  A    between atoms: _681  and  _682
REMARK  279  A    between atoms: _681  and  _684
REMARK  280  A    between atoms: _684  and  _685
REMARK  281  A    between atoms: _687  and  _689
REMARK  282  A    between atoms: _689  and  _690
REMARK  283  A    between atoms: _689  and  _692
REMARK  284  A    between atoms: _692  and  _693
REMARK  285  A    between atoms: _693  and  _694
REMARK  286  A    between atoms: _699  and  _701
REMARK  287  A    between atoms: _701  and  _702
REMARK  288  A    between atoms: _701  and  _704
REMARK  289  A    between atoms: _704  and  _705
REMARK  290  A    between atoms: _705  and  _706
REMARK  291  A    between atoms: _711  and  _713
REMARK  292  A    between atoms: _713  and  _714
REMARK  293  A    between atoms: _713  and  _716
REMARK  294  A    between atoms: _716  and  _717
REMARK  295  A    between atoms: _720  and  _722
REMARK  296  A    between atoms: _722  and  _723
REMARK  297  A    between atoms: _722  and  _725
REMARK  298  A    between atoms: _725  and  _726
REMARK  299  A    between atoms: _729  and  _731
REMARK  300  A    between atoms: _731  and  _732
REMARK  301  A    between atoms: _731  and  _734
REMARK  302  A    between atoms: _734  and  _735
REMARK  303  A    between atoms: _741  and  _743
REMARK  304  A    between atoms: _743  and  _744
REMARK  305  A    between atoms: _743  and  _746
REMARK  306  A    between atoms: _746  and  _747
REMARK  307  A    between atoms: _752  and  _753
REMARK  308  A    between atoms: _755  and  _757
REMARK  309  A    between atoms: _757  and  _758
REMARK  310  A    between atoms: _757  and  _760
REMARK  311  A    between atoms: _760  and  _761
REMARK  312  A    between atoms: _767  and  _769
REMARK  313  A    between atoms: _769  and  _770
REMARK  314  A    between atoms: _769  and  _772
REMARK  315  A    between atoms: _772  and  _773
REMARK  316  A    between atoms: _778  and  _780
REMARK  317  A    between atoms: _780  and  _781
REMARK  318  A    between atoms: _780  and  _783
REMARK  319  A    between atoms: _783  and  _784
REMARK  320  A    between atoms: _784  and  _785
REMARK                            x       y       z     vdW  Elec       q    Type
REMARK                         _______ _______ _______ _____ _____    ______ ____
ROOT
ATOM      1  C   MET A   1      10.848  61.300  33.533  0.00  0.00    +0.238 C 
ATOM      2  O   MET A   1      11.595  60.983  34.380  0.00  0.00    -0.274 OA
ATOM      3  N   THR A   2      11.243  61.752  32.340  0.00  0.00    -0.296 N 
ATOM      4  H   THR A   2      10.540  62.142  31.681  0.00  0.00    +0.150 HD
ENDROOT
BRANCH   1   5
ATOM      5  CA  MET A   1       9.362  61.139  33.734  0.00  0.00    +0.146 C 
BRANCH   5   6
ATOM      6  N   MET A   1       8.589  62.198  33.058  0.00  0.00    -0.238 NA
ATOM      7  H   MET A   1       8.088  61.971  32.176  0.00  0.00    +0.142 HD
ENDBRANCH   5   6
BRANCH   5   8
ATOM      8  CB  MET A   1       8.950  59.749  33.232  0.00  0.00    +0.038 C 
BRANCH   8   9
ATOM      9  CG  MET A   1       7.492  59.345  33.636  0.00  0.00    +0.060 C 
BRANCH   9  10
ATOM     10  SD  MET A   1       7.258  59.307  35.438  0.00  0.00    -0.139 S 
ATOM     11  CE  MET A   1       6.203  60.783  35.694  0.00  0.00    +0.069 C 
ENDBRANCH   9  10
ENDBRANCH   8   9
ENDBRANCH   5   8
ENDBRANCH   1   5
BRANCH   3  12
ATOM     12  CA  THR A   2      12.676  61.705  31.941  0.00  0.00    +0.164 C 
BRANCH  12  13
ATOM     13  C   THR A   2      13.446  62.986  32.136  0.00  0.00    +0.229 C 
ATOM     14  O   THR A   2      14.612  62.954  32.330  0.00  0.00    -0.286 OA
ENDBRANCH  12  13
BRANCH  12  15
ATOM     15  CB  THR A   2      12.853  61.307  30.466  0.00  0.00    +0.136 C 
ATOM     16  CG2 THR A   2      12.386  59.858  30.171  0.00  0.00    +0.034 C 
BRANCH  15  17
ATOM     17  OG1 THR A   2      12.166  62.238  29.637  0.00  0.00    -0.382 OA
ATOM     18  HG1 THR A   2      11.203  62.235  29.867  0.00  0.00    +0.210 HD
ENDBRANCH  15  17
ENDBRANCH  12  15
ENDBRANCH   3  12
TORSDOF 9
REMARK  Name = ../refined-set-2016/3drf/3drf_pocket.pdb
REMARK  320 active torsions:
REMARK  status: ('A' for Active; 'I' for Inactive)
REMARK    1  A    between atoms: _1  and  _3
REMARK    2  A    between atoms: _3  and  _4
REMARK    3  A    between atoms: _3  and  _6
REMARK    4  A    between atoms: _6  and  _7
REMARK    5  A    between atoms: _12  and  _13
REMARK    6  A    between atoms: _15  and  _17
REMARK    7  A    between atoms: _17  and  _18
REMARK    8  A    between atoms: _17  and  _20
REMARK    9  A    between atoms: _20  and  _21
REMARK   10  A    between atoms: _21  and  _22
REMARK   11  A    between atoms: _27  and  _29
REMARK   12  A    between atoms: _29  and  _30
REMARK   13  A    between atoms: _29  and  _32
REMARK   14  A    between atoms: _32  and  _33
REMARK   15  A    between atoms: _35  and  _37
REMARK   16  A    between atoms: _37  and  _38
REMARK   17  A    between atoms: _37  and  _40
REMARK   18  A    between atoms: _40  and  _41
REMARK   19  A    between atoms: _44  and  _46
REMARK   20  A    between atoms: _46  and  _47
REMARK   21  A    between atoms: _46  and  _49
REMARK   22  A    between atoms: _49  and  _50
REMARK   23  A    between atoms: _52  and  _54
REMARK   24  A    between atoms: _54  and  _55
REMARK   25  A    between atoms: _54  and  _57
REMARK   26  A    between atoms: _57  and  _58
REMARK   27  A    between atoms: _60  and  _62
REMARK   28  A    between atoms: _62  and  _63
REMARK   29  A    between atoms: _65  and  _67
REMARK   30  A    between atoms: _67  and  _68
REMARK   31  A    between atoms: _67  and  _70
REMARK   32  A    between atoms: _70  and  _71
REMARK   33  A    between atoms: _73  and  _75
REMARK   34  A    between atoms: _75  and  _76
REMARK   35  A    between atoms: _75  and  _78
REMARK   36  A    between atoms: _78  and  _79
REMARK   37  A    between atoms: _84  and  _86
REMARK   38  A    between atoms: _86  and  _87
REMARK   39  A    between atoms: _86  and  _89
REMARK   40  A    between atoms: _89  and  _90
REMARK   41  A    between atoms: _93  and  _95
REMARK   42  A    between atoms: _95  and  _96
REMARK   43  A    between atoms: _99  and  _101
REMARK   44  A    between atoms: _101  and  _102
REMARK   45  A    between atoms: _101  and  _104
REMARK   46  A    between atoms: _104  and  _105
REMARK   47  A    between atoms: _108  and  _110
REMARK   48  A    between atoms: _110  and  _111
REMARK   49  A    between atoms: _110  and  _113
REMARK   50  A    between atoms: _113  and  _114
REMARK   51  A    between atoms: _120  and  _122
REMARK   52  A    between atoms: _122  and  _123
REMARK   53  A    between atoms: _126  and  _128
REMARK   54  A    between atoms: _128  and  _129
REMARK   55  A    between atoms: _128  and  _131
REMARK   56  A    between atoms: _131  and  _132
REMARK   57  A    between atoms: _135  and  _137
REMARK   58  A    between atoms: _137  and  _138
REMARK   59  A    between atoms: _140  and  _142
REMARK   60  A    between atoms: _142  and  _143
REMARK   61  A    between atoms: _142  and  _145
REMARK   62  A    between atoms: _145  and  _146
REMARK   63  A    between atoms: _146  and  _147
REMARK   64  A    between atoms: _152  and  _154
REMARK   65  A    between atoms: _154  and  _155
REMARK   66  A    between atoms: _157  and  _159
REMARK   67  A    between atoms: _159  and  _160
REMARK   68  A    between atoms: _159  and  _162
REMARK   69  A    between atoms: _162  and  _163
REMARK   70  A    between atoms: _166  and  _168
REMARK   71  A    between atoms: _168  and  _169
REMARK   72  A    between atoms: _168  and  _171
REMARK   73  A    between atoms: _171  and  _172
REMARK   74  A    between atoms: _178  and  _180
REMARK   75  A    between atoms: _180  and  _181
REMARK   76  A    between atoms: _180  and  _183
REMARK   77  A    between atoms: _183  and  _184
REMARK   78  A    between atoms: _187  and  _189
REMARK   79  A    between atoms: _189  and  _190
REMARK   80  A    between atoms: _189  and  _192
REMARK   81  A    between atoms: _192  and  _193
REMARK   82  A    between atoms: _199  and  _201
REMARK   83  A    between atoms: _201  and  _202
REMARK   84  A    between atoms: _201  and  _204
REMARK   85  A    between atoms: _204  and  _205
REMARK   86  A    between atoms: _211  and  _213
REMARK   87  A    between atoms: _213  and  _214
REMARK   88  A    between atoms: _213  and  _216
REMARK   89  A    between atoms: _216  and  _217
REMARK   90  A    between atoms: _220  and  _222
REMARK   91  A    between atoms: _222  and  _223
REMARK   92  A    between atoms: _222  and  _225
REMARK   93  A    between atoms: _225  and  _226
REMARK   94  A    between atoms: _229  and  _231
REMARK   95  A    between atoms: _231  and  _232
REMARK   96  A    between atoms: _231  and  _234
REMARK   97  A    between atoms: _234  and  _235
REMARK   98  A    between atoms: _235  and  _236
REMARK   99  A    between atoms: _236  and  _237
REMARK  100  A    between atoms: _246  and  _248
REMARK  101  A    between atoms: _248  and  _249
REMARK  102  A    between atoms: _248  and  _251
REMARK  103  A    between atoms: _251  and  _252
REMARK  104  A    between atoms: _255  and  _257
REMARK  105  A    between atoms: _257  and  _258
REMARK  106  A    between atoms: _257  and  _260
REMARK  107  A    between atoms: _260  and  _261
REMARK  108  A    between atoms: _263  and  _265
REMARK  109  A    between atoms: _265  and  _266
REMARK  110  A    between atoms: _265  and  _268
REMARK  111  A    between atoms: _268  and  _269
REMARK  112  A    between atoms: _269  and  _270
REMARK  113  A    between atoms: _275  and  _277
REMARK  114  A    between atoms: _277  and  _278
REMARK  115  A    between atoms: _277  and  _280
REMARK  116  A    between atoms: _280  and  _281
REMARK  117  A    between atoms: _283  and  _285
REMARK  118  A    between atoms: _285  and  _286
REMARK  119  A    between atoms: _288  and  _290
REMARK  120  A    between atoms: _290  and  _291
REMARK  121  A    between atoms: _290  and  _293
REMARK  122  A    between atoms: _293  and  _294
REMARK  123  A    between atoms: _299  and  _301
REMARK  124  A    between atoms: _301  and  _302
REMARK  125  A    between atoms: _304  and  _306
REMARK  126  A    between atoms: _306  and  _307
REMARK  127  A    between atoms: _306  and  _309
REMARK  128  A    between atoms: _309  and  _310
REMARK  129  A    between atoms: _315  and  _316
REMARK  130  A    between atoms: _318  and  _320
REMARK  131  A    between atoms: _320  and  _321
REMARK  132  A    between atoms: _320  and  _323
REMARK  133  A    between atoms: _323  and  _324
REMARK  134  A    between atoms: _330  and  _332
REMARK  135  A    between atoms: _332  and  _333
REMARK  136  A    between atoms: _332  and  _335
REMARK  137  A    between atoms: _335  and  _336
REMARK  138  A    between atoms: _339  and  _341
REMARK  139  A    between atoms: _341  and  _342
REMARK  140  A    between atoms: _341  and  _344
REMARK  141  A    between atoms: _344  and  _345
REMARK  142  A    between atoms: _345  and  _346
REMARK  143  A    between atoms: _349  and  _351
REMARK  144  A    between atoms: _351  and  _352
REMARK  145  A    between atoms: _351  and  _354
REMARK  146  A    between atoms: _354  and  _355
REMARK  147  A    between atoms: _358  and  _360
REMARK  148  A    between atoms: _360  and  _361
REMARK  149  A    between atoms: _360  and  _363
REMARK  150  A    between atoms: _363  and  _364
REMARK  151  A    between atoms: _367  and  _369
REMARK  152  A    between atoms: _369  and  _370
REMARK  153  A    between atoms: _372  and  _374
REMARK  154  A    between atoms: _374  and  _375
REMARK  155  A    between atoms: _374  and  _377
REMARK  156  A    between atoms: _380  and  _382
REMARK  157  A    between atoms: _382  and  _383
REMARK  158  A    between atoms: _382  and  _385
REMARK  159  A    between atoms: _385  and  _386
REMARK  160  A    between atoms: _388  and  _390
REMARK  161  A    between atoms: _390  and  _391
REMARK  162  A    between atoms: _390  and  _393
REMARK  163  A    between atoms: _393  and  _394
REMARK  164  A    between atoms: _394  and  _395
REMARK  165  A    between atoms: _397  and  _399
REMARK  166  A    between atoms: _399  and  _400
REMARK  167  A    between atoms: _399  and  _402
REMARK  168  A    between atoms: _402  and  _403
REMARK  169  A    between atoms: _408  and  _409
REMARK  170  A    between atoms: _411  and  _413
REMARK  171  A    between atoms: _413  and  _414
REMARK  172  A    between atoms: _413  and  _416
REMARK  173  A    between atoms: _416  and  _417
REMARK  174  A    between atoms: _420  and  _422
REMARK  175  A    between atoms: _422  and  _423
REMARK  176  A    between atoms: _422  and  _425
REMARK  177  A    between atoms: _425  and  _426
REMARK  178  A    between atoms: _428  and  _430
REMARK  179  A    between atoms: _430  and  _431
REMARK  180  A    between atoms: _430  and  _433
REMARK  181  A    between atoms: _433  and  _434
REMARK  182  A    between atoms: _437  and  _439
REMARK  183  A    between atoms: _439  and  _440
REMARK  184  A    between atoms: _439  and  _442
REMARK  185  A    between atoms: _442  and  _443
REMARK  186  A    between atoms: _448  and  _449
REMARK  187  A    between atoms: _451  and  _453
REMARK  188  A    between atoms: _453  and  _454
REMARK  189  A    between atoms: _453  and  _456
REMARK  190  A    between atoms: _456  and  _457
REMARK  191  A    between atoms: _459  and  _461
REMARK  192  A    between atoms: _461  and  _462
REMARK  193  A    between atoms: _461  and  _464
REMARK  194  A    between atoms: _464  and  _465
REMARK  195  A    between atoms: _471  and  _473
REMARK  196  A    between atoms: _473  and  _474
REMARK  197  A    between atoms: _473  and  _476
REMARK  198  A    between atoms: _476  and  _477
REMARK  199  A    between atoms: _477  and  _478
REMARK  200  A    between atoms: _478  and  _479
REMARK  201  A    between atoms: _488  and  _490
REMARK  202  A    between atoms: _490  and  _491
REMARK  203  A    between atoms: _490  and  _493
REMARK  204  A    between atoms: _496  and  _498
REMARK  205  A    between atoms: _498  and  _499
REMARK  206  A    between atoms: _501  and  _503
REMARK  207  A    between atoms: _503  and  _504
REMARK  208  A    between atoms: _503  and  _506
REMARK  209  A    between atoms: _506  and  _507
REMARK  210  A    between atoms: _510  and  _512
REMARK  211  A    between atoms: _512  and  _513
REMARK  212  A    between atoms: _512  and  _515
REMARK  213  A    between atoms: _515  and  _516
REMARK  214  A    between atoms: _516  and  _517
REMARK  215  A    between atoms: _519  and  _521
REMARK  216  A    between atoms: _521  and  _522
REMARK  217  A    between atoms: _521  and  _524
REMARK  218  A    between atoms: _524  and  _525
REMARK  219  A    between atoms: _531  and  _533
REMARK  220  A    between atoms: _533  and  _534
REMARK  221  A    between atoms: _533  and  _536
REMARK  222  A    between atoms: _536  and  _537
REMARK  223  A    between atoms: _542  and  _544
REMARK  224  A    between atoms: _544  and  _545
REMARK  225  A    between atoms: _544  and  _547
REMARK  226  A    between atoms: _547  and  _548
REMARK  227  A    between atoms: _558  and  _560
REMARK  228  A    between atoms: _560  and  _561
REMARK  229  A    between atoms: _560  and  _563
REMARK  230  A    between atoms: _566  and  _568
REMARK  231  A    between atoms: _568  and  _569
REMARK  232  A    between atoms: _568  and  _571
REMARK  233  A    between atoms: _571  and  _572
REMARK  234  A    between atoms: _575  and  _577
REMARK  235  A    between atoms: _577  and  _578
REMARK  236  A    between atoms: _577  and  _580
REMARK  237  A    between atoms: _580  and  _581
REMARK  238  A    between atoms: _581  and  _582
REMARK  239  A    between atoms: _584  and  _586
REMARK  240  A    between atoms: _586  and  _587
REMARK  241  A    between atoms: _586  and  _589
REMARK  242  A    between atoms: _589  and  _590
REMARK  243  A    between atoms: _593  and  _595
REMARK  244  A    between atoms: _595  and  _596
REMARK  245  A    between atoms: _595  and  _598
REMARK  246  A    between atoms: _598  and  _599
REMARK  247  A    between atoms: _602  and  _604
REMARK  248  A    between atoms: _604  and  _605
REMARK  249  A    between atoms: _607  and  _609
REMARK  250  A    between atoms: _609  and  _610
REMARK  251  A    between atoms: _609  and  _612
REMARK  252  A    between atoms: _612  and  _613
REMARK  253  A    between atoms: _615  and  _617
REMARK  254  A    between atoms: _617  and  _618
REMARK  255  A    between atoms: _617  and  _620
REMARK  256  A    between atoms: _620  and  _621
REMARK  257  A    between atoms: _631  and  _633
REMARK  258  A    between atoms: _633  and  _634
REMARK  259  A    between atoms: _633  and  _636
REMARK  260  A    between atoms: _636  and  _637
REMARK  261  A    between atoms: _639  and  _641
REMARK  262  A    between atoms: _641  and  _642
REMARK  263  A    between atoms: _641  and  _644
REMARK  264  A    between atoms: _644  and  _645
REMARK  265  A    between atoms: _648  and  _650
REMARK  266  A    between atoms: _650  and  _651
REMARK  267  A    between atoms: _654  and  _656
REMARK  268  A    between atoms: _656  and  _657
REMARK  269  A    between atoms: _656  and  _659
REMARK  270  A    between atoms: _659  and  _660
REMARK  271  A    between atoms: _662  and  _664
REMARK  272  A    between atoms: _664  and  _665
REMARK  273  A    between atoms: _664  and  _667
REMARK  274  A    between atoms: _667  and  _668
REMARK  275  A    between atoms: _668  and  _669
REMARK  276  A    between atoms: _673  and  _674
REMARK  277  A    between atoms: _679  and  _681
REMARK  278  A    between atoms: _681  and  _682
REMARK  279  A    between atoms: _681  and  _684
REMARK  280  A    between atoms: _684  and  _685
REMARK  281  A    between atoms: _687  and  _689
REMARK  282  A    between atoms: _689  and  _690
REMARK  283  A    between atoms: _689  and  _692
REMARK  284  A    between atoms: _692  and  _693
REMARK  285  A    between atoms: _693  and  _694
REMARK  286  A    between atoms: _699  and  _701
REMARK  287  A    between atoms: _701  and  _702
REMARK  288  A    between atoms: _701  and  _704
REMARK  289  A    between atoms: _704  and  _705
REMARK  290  A    between atoms: _705  and  _706
REMARK  291  A    between atoms: _711  and  _713
REMARK  292  A    between atoms: _713  and  _714
REMARK  293  A    between atoms: _713  and  _716
REMARK  294  A    between atoms: _716  and  _717
REMARK  295  A    between atoms: _720  and  _722
REMARK  296  A    between atoms: _722  and  _723
REMARK  297  A    between atoms: _722  and  _725
REMARK  298  A    between atoms: _725  and  _726
REMARK  299  A    between atoms: _729  and  _731
REMARK  300  A    between atoms: _731  and  _732
REMARK  301  A    between atoms: _731  and  _734
REMARK  302  A    between atoms: _734  and  _735
REMARK  303  A    between atoms: _741  and  _743
REMARK  304  A    between atoms: _743  and  _744
REMARK  305  A    between atoms: _743  and  _746
REMARK  306  A    between atoms: _746  and  _747
REMARK  307  A    between atoms: _752  and  _753
REMARK  308  A    between atoms: _755  and  _757
REMARK  309  A    between atoms: _757  and  _758
REMARK  310  A    between atoms: _757  and  _760
REMARK  311  A    between atoms: _760  and  _761
REMARK  312  A    between atoms: _767  and  _769
REMARK  313  A    between atoms: _769  and  _770
REMARK  314  A    between atoms: _769  and  _772
REMARK  315  A    between atoms: _772  and  _773
REMARK  316  A    between atoms: _778  and  _780
REMARK  317  A    between atoms: _780  and  _781
REMARK  318  A    between atoms: _780  and  _783
REMARK  319  A    between atoms: _783  and  _784
REMARK  320  A    between atoms: _784  and  _785
REMARK                            x       y       z     vdW  Elec       q    Type
REMARK                         _______ _______ _______ _____ _____    ______ ____
ROOT
ATOM      1  CA  GLU A   9      18.270  39.927  28.201  0.00  0.00    +0.149 C 
ENDROOT
BRANCH   1   2
ATOM      2  C   GLU A   9      17.706  40.364  29.564  0.00  0.00    +0.244 C 
ATOM      3  N   PRO A  10      17.601  39.460  30.509  0.00  0.00    -0.272 N 
ATOM      4  CA  PRO A  10      16.773  39.787  31.705  0.00  0.00    +0.152 C 
ATOM      5  CB  PRO A  10      16.542  38.408  32.366  0.00  0.00    +0.031 C 
ATOM      6  CG  PRO A  10      17.671  37.547  31.842  0.00  0.00    +0.024 C 
ATOM      7  CD  PRO A  10      17.831  38.001  30.400  0.00  0.00    +0.094 C 
ATOM      8  O   GLU A   9      17.400  41.515  29.724  0.00  0.00    -0.273 OA
BRANCH   4   9
ATOM      9  C   PRO A  10      17.305  40.805  32.770  0.00  0.00    +0.241 C 
ATOM     10  O   PRO A  10      16.550  41.227  33.588  0.00  0.00    -0.273 OA
ATOM     11  N   SER A  11      18.592  41.122  32.731  0.00  0.00    -0.295 N 
ATOM     12  H   SER A  11      19.219  40.661  32.041  0.00  0.00    +0.150 HD
BRANCH  11  13
ATOM     13  CA  SER A  11      19.137  42.127  33.664  0.00  0.00    +0.178 C 
BRANCH  13  14
ATOM     14  C   SER A  11      18.370  43.458  33.542  0.00  0.00    +0.243 C 
ATOM     15  N   GLN A  12      18.063  44.016  34.693  0.00  0.00    -0.297 N 
ATOM     16  H   GLN A  12      18.349  43.541  35.573  0.00  0.00    +0.150 HD
ATOM     17  O   SER A  11      18.086  43.916  32.477  0.00  0.00    -0.273 OA
BRANCH  15  18
ATOM     18  CA  GLN A  12      17.330  45.286  34.780  0.00  0.00    +0.149 C 
BRANCH  18  19
ATOM     19  C   GLN A  12      18.183  46.463  35.261  0.00  0.00    +0.241 C 
ATOM     20  O   GLN A  12      17.673  47.434  35.692  0.00  0.00    -0.273 OA
ATOM     21  N   GLN A  13      19.500  46.359  35.104  0.00  0.00    -0.297 N 
ATOM     22  H   GLN A  13      19.908  45.443  34.830  0.00  0.00    +0.150 HD
BRANCH  21  23
ATOM     23  CA  GLN A  13      20.400  47.519  35.311  0.00  0.00    +0.149 C 
BRANCH  23  24
ATOM     24  C   GLN A  13      19.927  48.733  34.560  0.00  0.00    +0.241 C 
ATOM     25  O   GLN A  13      20.029  49.793  35.078  0.00  0.00    -0.273 OA
ATOM     26  N   ASP A  14      19.413  48.551  33.337  0.00  0.00    -0.297 N 
ATOM     27  H   ASP A  14      19.229  47.591  32.982  0.00  0.00    +0.150 HD
BRANCH  26  28
ATOM     28  CA  ASP A  14      19.111  49.725  32.499  0.00  0.00    +0.160 C 
BRANCH  28  29
ATOM     29  C   ASP A  14      17.723  50.332  32.839  0.00  0.00    +0.241 C 
ATOM     30  N   LEU A  15      16.989  49.707  33.730  0.00  0.00    -0.297 N 
ATOM     31  H   LEU A  15      17.285  48.758  34.034  0.00  0.00    +0.150 HD
ATOM     32  O   ASP A  14      17.386  51.339  32.346  0.00  0.00    -0.273 OA
BRANCH  30  33
ATOM     33  CA  LEU A  15      15.761  50.283  34.325  0.00  0.00    +0.149 C 
BRANCH  33  34
ATOM     34  C   LEU A  15      15.988  50.937  35.698  0.00  0.00    +0.241 C 
ATOM     35  N   PHE A  16      16.867  50.364  36.510  0.00  0.00    -0.298 N 
ATOM     36  H   PHE A  16      17.529  49.656  36.133  0.00  0.00    +0.150 HD
ATOM     37  O   LEU A  15      15.343  51.898  36.013  0.00  0.00    -0.273 OA
BRANCH  35  38
ATOM     38  CA  PHE A  16      16.918  50.720  37.946  0.00  0.00    +0.141 C 
BRANCH  38  39
ATOM     39  C   PHE A  16      18.296  51.115  38.504  0.00  0.00    +0.227 C 
ATOM     40  O   PHE A  16      18.378  51.530  39.604  0.00  0.00    -0.286 OA
ENDBRANCH  38  39
BRANCH  38  41
ATOM     41  CB  PHE A  16      16.365  49.574  38.773  0.00  0.00    +0.054 C 
BRANCH  41  42
ATOM     42  CG  PHE A  16      14.895  49.306  38.500  0.00  0.00    -0.020 A 
ATOM     43  CD2 PHE A  16      13.924  50.274  38.725  0.00  0.00    -0.004 A 
ATOM     44  CE2 PHE A  16      12.605  50.023  38.436  0.00  0.00    -0.000 A 
ATOM     45  CZ  PHE A  16      12.221  48.759  37.906  0.00  0.00    -0.000 A 
ATOM     46  CE1 PHE A  16      13.169  47.795  37.689  0.00  0.00    -0.000 A 
ATOM     47  CD1 PHE A  16      14.534  48.093  37.998  0.00  0.00    -0.004 A 
ENDBRANCH  41  42
ENDBRANCH  38  41
ENDBRANCH  35  38
ENDBRANCH  33  34
BRANCH  33  48
ATOM     48  CB  LEU A  15      14.721  49.179  34.493  0.00  0.00    +0.029 C 
BRANCH  48  49
ATOM     49  CG  LEU A  15      14.215  48.454  33.229  0.00  0.00    +0.002 C 
ATOM     50  CD2 LEU A  15      13.070  47.532  33.616  0.00  0.00    +0.000 C 
ATOM     51  CD1 LEU A  15      13.718  49.427  32.120  0.00  0.00    +0.000 C 
ENDBRANCH  48  49
ENDBRANCH  33  48
ENDBRANCH  30  33
ENDBRANCH  28  29
BRANCH  28  52
ATOM     52  CB  ASP A  14      19.277  49.349  31.010  0.00  0.00    +0.143 C 
BRANCH  52  53
ATOM     53  CG  ASP A  14      20.762  49.089  30.618  0.00  0.00    +0.367 C 
ATOM     54  OD2 ASP A  14      21.625  49.313  31.391  0.00  0.00    -0.246 OA
ATOM     55  OD1 ASP A  14      20.908  48.695  29.484  0.00  0.00    -0.246 OA
ENDBRANCH  52  53
ENDBRANCH  28  52
ENDBRANCH  26  28
ENDBRANCH  23  24
BRANCH  23  56
ATOM     56  CB  GLN A  13      21.848  47.204  34.825  0.00  0.00    +0.039 C 
BRANCH  56  57
ATOM     57  CG  GLN A  13      22.581  46.099  35.691  0.00  0.00    +0.087 C 
BRANCH  57  58
ATOM     58  CD  GLN A  13      23.251  46.699  36.937  0.00  0.00    +0.219 C 
ATOM     59  NE2 GLN A  13      24.082  45.921  37.584  0.00  0.00    -0.329 N 
ATOM     60 HE21 GLN A  13      24.538  46.258  38.456  0.00  0.00    +0.145 HD
ATOM     61 HE22 GLN A  13      24.286  44.966  37.226  0.00  0.00    +0.145 HD
ATOM     62  OE1 GLN A  13      22.999  47.778  37.311  0.00  0.00    -0.275 OA
ENDBRANCH  57  58
ENDBRANCH  56  57
ENDBRANCH  23  56
ENDBRANCH  21  23
ENDBRANCH  18  19
BRANCH  18  63
ATOM     63  CB  GLN A  12      16.041  45.137  35.608  0.00  0.00    +0.039 C 
BRANCH  63  64
ATOM     64  CG  GLN A  12      15.133  44.045  34.931  0.00  0.00    +0.087 C 
BRANCH  64  65
ATOM     65  CD  GLN A  12      13.757  43.970  35.580  0.00  0.00    +0.219 C 
ATOM     66  OE1 GLN A  12      13.560  44.327  36.736  0.00  0.00    -0.275 OA
ATOM     67  NE2 GLN A  12      12.812  43.482  34.829  0.00  0.00    -0.329 N 
ATOM     68 HE21 GLN A  12      11.847  43.383  35.205  0.00  0.00    +0.145 HD
ATOM     69 HE22 GLN A  12      13.022  43.191  33.853  0.00  0.00    +0.145 HD
ENDBRANCH  64  65
ENDBRANCH  63  64
ENDBRANCH  18  63
ENDBRANCH  15  18
ENDBRANCH  13  14
BRANCH  13  70
ATOM     70  CB  SER A  11      20.631  42.341  33.375  0.00  0.00    +0.166 C 
BRANCH  70  71
ATOM     71  OG  SER A  11      21.118  43.241  34.381  0.00  0.00    -0.380 OA
ATOM     72  H   SER A  11      22.082  43.409  34.233  0.00  0.00    +0.211 HD
ENDBRANCH  70  71
ENDBRANCH  13  70
ENDBRANCH  11  13
ENDBRANCH   4   9
ENDBRANCH   1   2
BRANCH   1  74
ATOM     73  C   SER A   8      16.904  40.003  26.152  0.00  0.00    +0.243 C 
ATOM     74  N   GLU A   9      17.436  40.618  27.206  0.00  0.00    -0.297 N 
ATOM     75  H   GLU A   9      17.253  41.634  27.332  0.00  0.00    +0.150 HD
ATOM     76  O   SER A   8      17.218  38.909  25.838  0.00  0.00    -0.273 OA
BRANCH  73  77
ATOM     77  CA  SER A   8      15.883  40.757  25.320  0.00  0.00    +0.178 C 
BRANCH  77  80
ATOM     78  C   ALA A   7      15.414  42.850  26.432  0.00  0.00    +0.241 C 
ATOM     79  O   ALA A   7      14.917  42.311  27.365  0.00  0.00    -0.273 OA
ATOM     80  N   SER A   8      15.959  42.215  25.421  0.00  0.00    -0.295 N 
ATOM     81  H   SER A   8      16.452  42.755  24.681  0.00  0.00    +0.150 HD
BRANCH  78  82
ATOM     82  CA  ALA A   7      15.439  44.374  26.349  0.00  0.00    +0.149 C 
ATOM     83  CB  ALA A   7      16.754  44.912  27.005  0.00  0.00    +0.031 C 
BRANCH  82  85
ATOM     84  C   LEU A   6      13.026  44.596  26.707  0.00  0.00    +0.241 C 
ATOM     85  N   ALA A   7      14.284  44.892  27.076  0.00  0.00    -0.297 N 
ATOM     86  H   ALA A   7      14.439  45.506  27.901  0.00  0.00    +0.150 HD
ATOM     87  O   LEU A   6      12.743  44.014  25.717  0.00  0.00    -0.273 OA
BRANCH  84  88
ATOM     88  CA  LEU A   6      11.955  45.026  27.725  0.00  0.00    +0.149 C 
BRANCH  88  90
ATOM     89  C   SER A   5      10.440  46.390  26.390  0.00  0.00    +0.243 C 
ATOM     90  N   LEU A   6      10.672  45.317  27.114  0.00  0.00    -0.297 N 
ATOM     91  H   LEU A   6       9.894  44.641  27.256  0.00  0.00    +0.150 HD
ATOM     92  O   SER A   5      11.320  47.166  26.012  0.00  0.00    -0.273 OA
BRANCH  89  93
ATOM     93  CA  SER A   5       8.974  46.638  26.050  0.00  0.00    +0.178 C 
BRANCH  93  96
ATOM     94  C   TRP A   4       8.117  47.400  28.202  0.00  0.00    +0.241 C 
ATOM     95  O   TRP A   4       7.686  46.300  28.541  0.00  0.00    -0.273 OA
ATOM     96  N   SER A   5       8.548  47.674  26.971  0.00  0.00    -0.295 N 
ATOM     97  H   SER A   5       8.580  48.666  26.660  0.00  0.00    +0.150 HD
BRANCH  94  98
ATOM     98  CA  TRP A   4       8.201  48.536  29.188  0.00  0.00    +0.153 C 
BRANCH  98 100
ATOM     99  C   SER A   3       6.375  49.867  30.087  0.00  0.00    +0.243 C 
ATOM    100  N   TRP A   4       6.972  48.685  29.936  0.00  0.00    -0.297 N 
ATOM    101  H   TRP A   4       6.541  47.844  30.369  0.00  0.00    +0.150 HD
ATOM    102  O   SER A   3       6.811  50.916  29.600  0.00  0.00    -0.273 OA
BRANCH  99 103
ATOM    103  CA  SER A   3       5.098  49.886  30.914  0.00  0.00    +0.178 C 
BRANCH 103 106
ATOM    104  C   GLY A   2       4.672  51.245  32.891  0.00  0.00    +0.243 C 
ATOM    105  O   GLY A   2       4.141  50.329  33.442  0.00  0.00    -0.273 OA
ATOM    106  N   SER A   3       5.089  51.155  31.650  0.00  0.00    -0.295 N 
ATOM    107  H   SER A   3       5.425  52.015  31.171  0.00  0.00    +0.150 HD
BRANCH 104 108
ATOM    108  CA  GLY A   2       4.861  52.616  33.547  0.00  0.00    +0.176 C 
BRANCH 108 110
ATOM    109  C   ASP A   1       3.031  53.646  34.766  0.00  0.00    +0.239 C 
ATOM    110  N   GLY A   2       3.984  52.720  34.698  0.00  0.00    -0.296 N 
ATOM    111  H   GLY A   2       4.103  52.055  35.489  0.00  0.00    +0.150 HD
ATOM    112  O   ASP A   1       2.922  54.558  34.000  0.00  0.00    -0.274 OA
BRANCH 109 113
ATOM    113  CA  ASP A   1       2.085  53.535  35.932  0.00  0.00    +0.156 C 
BRANCH 113 114
ATOM    114  N   ASP A   1       1.985  54.857  36.578  0.00  0.00    -0.238 NA
ATOM    115  H   ASP A   1       1.587  55.640  36.021  0.00  0.00    +0.142 HD
ENDBRANCH 113 114
BRANCH 113 116
ATOM    116  CB  ASP A   1       0.711  53.109  35.392  0.00  0.00    +0.140 C 
BRANCH 116 117
ATOM    117  CG  ASP A   1      -0.343  53.003  36.491  0.00  0.00    +0.367 C 
ATOM    118  OD2 ASP A   1      -0.033  52.362  37.497  0.00  0.00    -0.246 OA
ATOM    119  OD1 ASP A   1      -1.411  53.531  36.318  0.00  0.00    -0.246 OA
ENDBRANCH 116 117
ENDBRANCH 113 116
ENDBRANCH 109 113
ENDBRANCH 108 110
ENDBRANCH 104 108
ENDBRANCH 103 106
BRANCH 103 120
ATOM    120  CB  SER A   3       3.884  49.757  29.991  0.00  0.00    +0.166 C 
BRANCH 120 121
ATOM    121  OG  SER A   3       2.667  49.674  30.721  0.00  0.00    -0.380 OA
ATOM    122  H   SER A   3       1.909  49.592  30.089  0.00  0.00    +0.211 HD
ENDBRANCH 120 121
ENDBRANCH 103 120
ENDBRANCH  99 103
ENDBRANCH  98 100
BRANCH  98 123
ATOM    123  CB  TRP A   4       9.378  48.231  30.125  0.00  0.00    +0.057 C 
BRANCH 123 124
ATOM    124  CG  TRP A   4       9.692  49.324  31.087  0.00  0.00    -0.002 A 
ATOM    125  CD1 TRP A   4       9.267  49.434  32.386  0.00  0.00    +0.068 A 
ATOM    126  NE1 TRP A   4       9.765  50.590  32.940  0.00  0.00    -0.352 N 
ATOM    127  HE1 TRP A   4       9.586  50.920  33.910  0.00  0.00    +0.166 HD
ATOM    128  CE2 TRP A   4      10.535  51.238  32.009  0.00  0.00    +0.056 A 
ATOM    129  CZ2 TRP A   4      11.256  52.435  32.102  0.00  0.00    +0.017 A 
ATOM    130  CH2 TRP A   4      11.923  52.855  30.984  0.00  0.00    +0.001 A 
ATOM    131  CZ3 TRP A   4      11.924  52.108  29.807  0.00  0.00    +0.000 A 
ATOM    132  CE3 TRP A   4      11.215  50.916  29.714  0.00  0.00    +0.001 A 
ATOM    133  CD2 TRP A   4      10.498  50.470  30.828  0.00  0.00    +0.013 A 
ENDBRANCH 123 124
ENDBRANCH  98 123
ENDBRANCH  94  98
ENDBRANCH  93  96
BRANCH  93 134
ATOM    134  CB  SER A   5       8.807  47.092  24.607  0.00  0.00    +0.166 C 
BRANCH 134 135
ATOM    135  OG  SER A   5       7.439  47.106  24.241  0.00  0.00    -0.380 OA
ATOM    136  H   SER A   5       7.353  47.404  23.301  0.00  0.00    +0.211 HD
ENDBRANCH 134 135
ENDBRANCH  93 134
ENDBRANCH  89  93
ENDBRANCH  88  90
BRANCH  88 137
ATOM    137  CB  LEU A   6      11.798  43.916  28.778  0.00  0.00    +0.029 C 
BRANCH 137 138
ATOM    138  CG  LEU A   6      10.985  44.261  30.027  0.00  0.00    +0.002 C 
ATOM    139  CD2 LEU A   6      11.689  45.272  30.909  0.00  0.00    +0.000 C 
ATOM    140  CD1 LEU A   6      10.658  42.986  30.807  0.00  0.00    +0.000 C 
ENDBRANCH 137 138
ENDBRANCH  88 137
ENDBRANCH  84  88
ENDBRANCH  82  85
ENDBRANCH  78  82
ENDBRANCH  77  80
BRANCH  77 141
ATOM    141  CB  SER A   8      15.918  40.276  23.863  0.00  0.00    +0.166 C 
BRANCH 141 142
ATOM    142  OG  SER A   8      17.060  40.752  23.224  0.00  0.00    -0.380 OA
ATOM    143  H   SER A   8      17.864  40.417  23.695  0.00  0.00    +0.211 HD
ENDBRANCH 141 142
ENDBRANCH  77 141
ENDBRANCH  73  77
ENDBRANCH   1  74
BRANCH   1 144
ATOM    144  CB  GLU A   9      19.728  40.378  27.997  0.00  0.00    +0.041 C 
BRANCH 144 145
ATOM    145  CG  GLU A   9      20.784  39.393  28.564  0.00  0.00    +0.116 C 
BRANCH 145 146
ATOM    146  CD  GLU A   9      20.911  39.439  30.091  0.00  0.00    +0.365 C 
ATOM    147  OE2 GLU A   9      20.697  40.522  30.651  0.00  0.00    -0.246 OA
ATOM    148  OE1 GLU A   9      21.178  38.411  30.613  0.00  0.00    -0.246 OA
ENDBRANCH 145 146
ENDBRANCH 144 145
ENDBRANCH   1 144
TORSDOF 60
REMARK  Name = ../refined-set-2016/3drf/3drf_pocket.pdb
REMARK  320 active torsions:
REMARK  status: ('A' for Active; 'I' for Inactive)
REMARK    1  A    between atoms: _1  and  _3
REMARK    2  A    between atoms: _3  and  _4
REMARK    3  A    between atoms: _3  and  _6
REMARK    4  A    between atoms: _6  and  _7
REMARK    5  A    between atoms: _12  and  _13
REMARK    6  A    between atoms: _15  and  _17
REMARK    7  A    between atoms: _17  and  _18
REMARK    8  A    between atoms: _17  and  _20
REMARK    9  A    between atoms: _20  and  _21
REMARK   10  A    between atoms: _21  and  _22
REMARK   11  A    between atoms: _27  and  _29
REMARK   12  A    between atoms: _29  and  _30
REMARK   13  A    between atoms: _29  and  _32
REMARK   14  A    between atoms: _32  and  _33
REMARK   15  A    between atoms: _35  and  _37
REMARK   16  A    between atoms: _37  and  _38
REMARK   17  A    between atoms: _37  and  _40
REMARK   18  A    between atoms: _40  and  _41
REMARK   19  A    between atoms: _44  and  _46
REMARK   20  A    between atoms: _46  and  _47
REMARK   21  A    between atoms: _46  and  _49
REMARK   22  A    between atoms: _49  and  _50
REMARK   23  A    between atoms: _52  and  _54
REMARK   24  A    between atoms: _54  and  _55
REMARK   25  A    between atoms: _54  and  _57
REMARK   26  A    between atoms: _57  and  _58
REMARK   27  A    between atoms: _60  and  _62
REMARK   28  A    between atoms: _62  and  _63
REMARK   29  A    between atoms: _65  and  _67
REMARK   30  A    between atoms: _67  and  _68
REMARK   31  A    between atoms: _67  and  _70
REMARK   32  A    between atoms: _70  and  _71
REMARK   33  A    between atoms: _73  and  _75
REMARK   34  A    between atoms: _75  and  _76
REMARK   35  A    between atoms: _75  and  _78
REMARK   36  A    between atoms: _78  and  _79
REMARK   37  A    between atoms: _84  and  _86
REMARK   38  A    between atoms: _86  and  _87
REMARK   39  A    between atoms: _86  and  _89
REMARK   40  A    between atoms: _89  and  _90
REMARK   41  A    between atoms: _93  and  _95
REMARK   42  A    between atoms: _95  and  _96
REMARK   43  A    between atoms: _99  and  _101
REMARK   44  A    between atoms: _101  and  _102
REMARK   45  A    between atoms: _101  and  _104
REMARK   46  A    between atoms: _104  and  _105
REMARK   47  A    between atoms: _108  and  _110
REMARK   48  A    between atoms: _110  and  _111
REMARK   49  A    between atoms: _110  and  _113
REMARK   50  A    between atoms: _113  and  _114
REMARK   51  A    between atoms: _120  and  _122
REMARK   52  A    between atoms: _122  and  _123
REMARK   53  A    between atoms: _126  and  _128
REMARK   54  A    between atoms: _128  and  _129
REMARK   55  A    between atoms: _128  and  _131
REMARK   56  A    between atoms: _131  and  _132
REMARK   57  A    between atoms: _135  and  _137
REMARK   58  A    between atoms: _137  and  _138
REMARK   59  A    between atoms: _140  and  _142
REMARK   60  A    between atoms: _142  and  _143
REMARK   61  A    between atoms: _142  and  _145
REMARK   62  A    between atoms: _145  and  _146
REMARK   63  A    between atoms: _146  and  _147
REMARK   64  A    between atoms: _152  and  _154
REMARK   65  A    between atoms: _154  and  _155
REMARK   66  A    between atoms: _157  and  _159
REMARK   67  A    between atoms: _159  and  _160
REMARK   68  A    between atoms: _159  and  _162
REMARK   69  A    between atoms: _162  and  _163
REMARK   70  A    between atoms: _166  and  _168
REMARK   71  A    between atoms: _168  and  _169
REMARK   72  A    between atoms: _168  and  _171
REMARK   73  A    between atoms: _171  and  _172
REMARK   74  A    between atoms: _178  and  _180
REMARK   75  A    between atoms: _180  and  _181
REMARK   76  A    between atoms: _180  and  _183
REMARK   77  A    between atoms: _183  and  _184
REMARK   78  A    between atoms: _187  and  _189
REMARK   79  A    between atoms: _189  and  _190
REMARK   80  A    between atoms: _189  and  _192
REMARK   81  A    between atoms: _192  and  _193
REMARK   82  A    between atoms: _199  and  _201
REMARK   83  A    between atoms: _201  and  _202
REMARK   84  A    between atoms: _201  and  _204
REMARK   85  A    between atoms: _204  and  _205
REMARK   86  A    between atoms: _211  and  _213
REMARK   87  A    between atoms: _213  and  _214
REMARK   88  A    between atoms: _213  and  _216
REMARK   89  A    between atoms: _216  and  _217
REMARK   90  A    between atoms: _220  and  _222
REMARK   91  A    between atoms: _222  and  _223
REMARK   92  A    between atoms: _222  and  _225
REMARK   93  A    between atoms: _225  and  _226
REMARK   94  A    between atoms: _229  and  _231
REMARK   95  A    between atoms: _231  and  _232
REMARK   96  A    between atoms: _231  and  _234
REMARK   97  A    between atoms: _234  and  _235
REMARK   98  A    between atoms: _235  and  _236
REMARK   99  A    between atoms: _236  and  _237
REMARK  100  A    between atoms: _246  and  _248
REMARK  101  A    between atoms: _248  and  _249
REMARK  102  A    between atoms: _248  and  _251
REMARK  103  A    between atoms: _251  and  _252
REMARK  104  A    between atoms: _255  and  _257
REMARK  105  A    between atoms: _257  and  _258
REMARK  106  A    between atoms: _257  and  _260
REMARK  107  A    between atoms: _260  and  _261
REMARK  108  A    between atoms: _263  and  _265
REMARK  109  A    between atoms: _265  and  _266
REMARK  110  A    between atoms: _265  and  _268
REMARK  111  A    between atoms: _268  and  _269
REMARK  112  A    between atoms: _269  and  _270
REMARK  113  A    between atoms: _275  and  _277
REMARK  114  A    between atoms: _277  and  _278
REMARK  115  A    between atoms: _277  and  _280
REMARK  116  A    between atoms: _280  and  _281
REMARK  117  A    between atoms: _283  and  _285
REMARK  118  A    between atoms: _285  and  _286
REMARK  119  A    between atoms: _288  and  _290
REMARK  120  A    between atoms: _290  and  _291
REMARK  121  A    between atoms: _290  and  _293
REMARK  122  A    between atoms: _293  and  _294
REMARK  123  A    between atoms: _299  and  _301
REMARK  124  A    between atoms: _301  and  _302
REMARK  125  A    between atoms: _304  and  _306
REMARK  126  A    between atoms: _306  and  _307
REMARK  127  A    between atoms: _306  and  _309
REMARK  128  A    between atoms: _309  and  _310
REMARK  129  A    between atoms: _315  and  _316
REMARK  130  A    between atoms: _318  and  _320
REMARK  131  A    between atoms: _320  and  _321
REMARK  132  A    between atoms: _320  and  _323
REMARK  133  A    between atoms: _323  and  _324
REMARK  134  A    between atoms: _330  and  _332
REMARK  135  A    between atoms: _332  and  _333
REMARK  136  A    between atoms: _332  and  _335
REMARK  137  A    between atoms: _335  and  _336
REMARK  138  A    between atoms: _339  and  _341
REMARK  139  A    between atoms: _341  and  _342
REMARK  140  A    between atoms: _341  and  _344
REMARK  141  A    between atoms: _344  and  _345
REMARK  142  A    between atoms: _345  and  _346
REMARK  143  A    between atoms: _349  and  _351
REMARK  144  A    between atoms: _351  and  _352
REMARK  145  A    between atoms: _351  and  _354
REMARK  146  A    between atoms: _354  and  _355
REMARK  147  A    between atoms: _358  and  _360
REMARK  148  A    between atoms: _360  and  _361
REMARK  149  A    between atoms: _360  and  _363
REMARK  150  A    between atoms: _363  and  _364
REMARK  151  A    between atoms: _367  and  _369
REMARK  152  A    between atoms: _369  and  _370
REMARK  153  A    between atoms: _372  and  _374
REMARK  154  A    between atoms: _374  and  _375
REMARK  155  A    between atoms: _374  and  _377
REMARK  156  A    between atoms: _380  and  _382
REMARK  157  A    between atoms: _382  and  _383
REMARK  158  A    between atoms: _382  and  _385
REMARK  159  A    between atoms: _385  and  _386
REMARK  160  A    between atoms: _388  and  _390
REMARK  161  A    between atoms: _390  and  _391
REMARK  162  A    between atoms: _390  and  _393
REMARK  163  A    between atoms: _393  and  _394
REMARK  164  A    between atoms: _394  and  _395
REMARK  165  A    between atoms: _397  and  _399
REMARK  166  A    between atoms: _399  and  _400
REMARK  167  A    between atoms: _399  and  _402
REMARK  168  A    between atoms: _402  and  _403
REMARK  169  A    between atoms: _408  and  _409
REMARK  170  A    between atoms: _411  and  _413
REMARK  171  A    between atoms: _413  and  _414
REMARK  172  A    between atoms: _413  and  _416
REMARK  173  A    between atoms: _416  and  _417
REMARK  174  A    between atoms: _420  and  _422
REMARK  175  A    between atoms: _422  and  _423
REMARK  176  A    between atoms: _422  and  _425
REMARK  177  A    between atoms: _425  and  _426
REMARK  178  A    between atoms: _428  and  _430
REMARK  179  A    between atoms: _430  and  _431
REMARK  180  A    between atoms: _430  and  _433
REMARK  181  A    between atoms: _433  and  _434
REMARK  182  A    between atoms: _437  and  _439
REMARK  183  A    between atoms: _439  and  _440
REMARK  184  A    between atoms: _439  and  _442
REMARK  185  A    between atoms: _442  and  _443
REMARK  186  A    between atoms: _448  and  _449
REMARK  187  A    between atoms: _451  and  _453
REMARK  188  A    between atoms: _453  and  _454
REMARK  189  A    between atoms: _453  and  _456
REMARK  190  A    between atoms: _456  and  _457
REMARK  191  A    between atoms: _459  and  _461
REMARK  192  A    between atoms: _461  and  _462
REMARK  193  A    between atoms: _461  and  _464
REMARK  194  A    between atoms: _464  and  _465
REMARK  195  A    between atoms: _471  and  _473
REMARK  196  A    between atoms: _473  and  _474
REMARK  197  A    between atoms: _473  and  _476
REMARK  198  A    between atoms: _476  and  _477
REMARK  199  A    between atoms: _477  and  _478
REMARK  200  A    between atoms: _478  and  _479
REMARK  201  A    between atoms: _488  and  _490
REMARK  202  A    between atoms: _490  and  _491
REMARK  203  A    between atoms: _490  and  _493
REMARK  204  A    between atoms: _496  and  _498
REMARK  205  A    between atoms: _498  and  _499
REMARK  206  A    between atoms: _501  and  _503
REMARK  207  A    between atoms: _503  and  _504
REMARK  208  A    between atoms: _503  and  _506
REMARK  209  A    between atoms: _506  and  _507
REMARK  210  A    between atoms: _510  and  _512
REMARK  211  A    between atoms: _512  and  _513
REMARK  212  A    between atoms: _512  and  _515
REMARK  213  A    between atoms: _515  and  _516
REMARK  214  A    between atoms: _516  and  _517
REMARK  215  A    between atoms: _519  and  _521
REMARK  216  A    between atoms: _521  and  _522
REMARK  217  A    between atoms: _521  and  _524
REMARK  218  A    between atoms: _524  and  _525
REMARK  219  A    between atoms: _531  and  _533
REMARK  220  A    between atoms: _533  and  _534
REMARK  221  A    between atoms: _533  and  _536
REMARK  222  A    between atoms: _536  and  _537
REMARK  223  A    between atoms: _542  and  _544
REMARK  224  A    between atoms: _544  and  _545
REMARK  225  A    between atoms: _544  and  _547
REMARK  226  A    between atoms: _547  and  _548
REMARK  227  A    between atoms: _558  and  _560
REMARK  228  A    between atoms: _560  and  _561
REMARK  229  A    between atoms: _560  and  _563
REMARK  230  A    between atoms: _566  and  _568
REMARK  231  A    between atoms: _568  and  _569
REMARK  232  A    between atoms: _568  and  _571
REMARK  233  A    between atoms: _571  and  _572
REMARK  234  A    between atoms: _575  and  _577
REMARK  235  A    between atoms: _577  and  _578
REMARK  236  A    between atoms: _577  and  _580
REMARK  237  A    between atoms: _580  and  _581
REMARK  238  A    between atoms: _581  and  _582
REMARK  239  A    between atoms: _584  and  _586
REMARK  240  A    between atoms: _586  and  _587
REMARK  241  A    between atoms: _586  and  _589
REMARK  242  A    between atoms: _589  and  _590
REMARK  243  A    between atoms: _593  and  _595
REMARK  244  A    between atoms: _595  and  _596
REMARK  245  A    between atoms: _595  and  _598
REMARK  246  A    between atoms: _598  and  _599
REMARK  247  A    between atoms: _602  and  _604
REMARK  248  A    between atoms: _604  and  _605
REMARK  249  A    between atoms: _607  and  _609
REMARK  250  A    between atoms: _609  and  _610
REMARK  251  A    between atoms: _609  and  _612
REMARK  252  A    between atoms: _612  and  _613
REMARK  253  A    between atoms: _615  and  _617
REMARK  254  A    between atoms: _617  and  _618
REMARK  255  A    between atoms: _617  and  _620
REMARK  256  A    between atoms: _620  and  _621
REMARK  257  A    between atoms: _631  and  _633
REMARK  258  A    between atoms: _633  and  _634
REMARK  259  A    between atoms: _633  and  _636
REMARK  260  A    between atoms: _636  and  _637
REMARK  261  A    between atoms: _639  and  _641
REMARK  262  A    between atoms: _641  and  _642
REMARK  263  A    between atoms: _641  and  _644
REMARK  264  A    between atoms: _644  and  _645
REMARK  265  A    between atoms: _648  and  _650
REMARK  266  A    between atoms: _650  and  _651
REMARK  267  A    between atoms: _654  and  _656
REMARK  268  A    between atoms: _656  and  _657
REMARK  269  A    between atoms: _656  and  _659
REMARK  270  A    between atoms: _659  and  _660
REMARK  271  A    between atoms: _662  and  _664
REMARK  272  A    between atoms: _664  and  _665
REMARK  273  A    between atoms: _664  and  _667
REMARK  274  A    between atoms: _667  and  _668
REMARK  275  A    between atoms: _668  and  _669
REMARK  276  A    between atoms: _673  and  _674
REMARK  277  A    between atoms: _679  and  _681
REMARK  278  A    between atoms: _681  and  _682
REMARK  279  A    between atoms: _681  and  _684
REMARK  280  A    between atoms: _684  and  _685
REMARK  281  A    between atoms: _687  and  _689
REMARK  282  A    between atoms: _689  and  _690
REMARK  283  A    between atoms: _689  and  _692
REMARK  284  A    between atoms: _692  and  _693
REMARK  285  A    between atoms: _693  and  _694
REMARK  286  A    between atoms: _699  and  _701
REMARK  287  A    between atoms: _701  and  _702
REMARK  288  A    between atoms: _701  and  _704
REMARK  289  A    between atoms: _704  and  _705
REMARK  290  A    between atoms: _705  and  _706
REMARK  291  A    between atoms: _711  and  _713
REMARK  292  A    between atoms: _713  and  _714
REMARK  293  A    between atoms: _713  and  _716
REMARK  294  A    between atoms: _716  and  _717
REMARK  295  A    between atoms: _720  and  _722
REMARK  296  A    between atoms: _722  and  _723
REMARK  297  A    between atoms: _722  and  _725
REMARK  298  A    between atoms: _725  and  _726
REMARK  299  A    between atoms: _729  and  _731
REMARK  300  A    between atoms: _731  and  _732
REMARK  301  A    between atoms: _731  and  _734
REMARK  302  A    between atoms: _734  and  _735
REMARK  303  A    between atoms: _741  and  _743
REMARK  304  A    between atoms: _743  and  _744
REMARK  305  A    between atoms: _743  and  _746
REMARK  306  A    between atoms: _746  and  _747
REMARK  307  A    between atoms: _752  and  _753
REMARK  308  A    between atoms: _755  and  _757
REMARK  309  A    between atoms: _757  and  _758
REMARK  310  A    between atoms: _757  and  _760
REMARK  311  A    between atoms: _760  and  _761
REMARK  312  A    between atoms: _767  and  _769
REMARK  313  A    between atoms: _769  and  _770
REMARK  314  A    between atoms: _769  and  _772
REMARK  315  A    between atoms: _772  and  _773
REMARK  316  A    between atoms: _778  and  _780
REMARK  317  A    between atoms: _780  and  _781
REMARK  318  A    between atoms: _780  and  _783
REMARK  319  A    between atoms: _783  and  _784
REMARK  320  A    between atoms: _784  and  _785
REMARK                            x       y       z     vdW  Elec       q    Type
REMARK                         _______ _______ _______ _____ _____    ______ ____
ROOT
ATOM      1  CG  TYR A   1      15.267  54.533  31.131  0.00  0.00    -0.020 A 
ATOM      2  CD2 TYR A   1      15.203  55.807  30.599  0.00  0.00    -0.001 A 
ATOM      3  CE2 TYR A   1      15.118  56.001  29.225  0.00  0.00    +0.036 A 
ATOM      4  CZ  TYR A   1      15.130  54.926  28.378  0.00  0.00    +0.134 A 
ATOM      5  CE1 TYR A   1      15.202  53.670  28.884  0.00  0.00    +0.036 A 
ATOM      6  CD1 TYR A   1      15.280  53.470  30.254  0.00  0.00    -0.001 A 
ENDROOT
BRANCH   4   7
ATOM      7  OH  TYR A   1      15.037  55.084  26.978  0.00  0.00    -0.506 OA
ATOM      8  HH  TYR A   1      14.992  56.048  26.758  0.00  0.00    +0.292 HD
ENDBRANCH   4   7
BRANCH   1   9
ATOM      9  CB  TYR A   1      15.373  54.271  32.644  0.00  0.00    +0.051 C 
BRANCH   9  10
ATOM     10  CA  TYR A   1      15.023  55.451  33.542  0.00  0.00    +0.137 C 
BRANCH  10  11
ATOM     11  N   TYR A   1      16.187  56.342  33.694  0.00  0.00    -0.239 NA
ATOM     12  H   TYR A   1      17.131  56.022  33.397  0.00  0.00    +0.142 HD
ENDBRANCH  10  11
BRANCH  10  13
ATOM     13  C   TYR A   1      14.455  54.907  34.894  0.00  0.00    +0.224 C 
ATOM     14  O   TYR A   1      13.406  54.400  34.908  0.00  0.00    -0.287 OA
ENDBRANCH  10  13
ENDBRANCH   9  10
ENDBRANCH   1   9
TORSDOF 5
REMARK  Name = ../refined-set-2016/3drf/3drf_pocket.pdb
REMARK  320 active torsions:
REMARK  status: ('A' for Active; 'I' for Inactive)
REMARK    1  A    between atoms: _1  and  _3
REMARK    2  A    between atoms: _3  and  _4
REMARK    3  A    between atoms: _3  and  _6
REMARK    4  A    between atoms: _6  and  _7
REMARK    5  A    between atoms: _12  and  _13
REMARK    6  A    between atoms: _15  and  _17
REMARK    7  A    between atoms: _17  and  _18
REMARK    8  A    between atoms: _17  and  _20
REMARK    9  A    between atoms: _20  and  _21
REMARK   10  A    between atoms: _21  and  _22
REMARK   11  A    between atoms: _27  and  _29
REMARK   12  A    between atoms: _29  and  _30
REMARK   13  A    between atoms: _29  and  _32
REMARK   14  A    between atoms: _32  and  _33
REMARK   15  A    between atoms: _35  and  _37
REMARK   16  A    between atoms: _37  and  _38
REMARK   17  A    between atoms: _37  and  _40
REMARK   18  A    between atoms: _40  and  _41
REMARK   19  A    between atoms: _44  and  _46
REMARK   20  A    between atoms: _46  and  _47
REMARK   21  A    between atoms: _46  and  _49
REMARK   22  A    between atoms: _49  and  _50
REMARK   23  A    between atoms: _52  and  _54
REMARK   24  A    between atoms: _54  and  _55
REMARK   25  A    between atoms: _54  and  _57
REMARK   26  A    between atoms: _57  and  _58
REMARK   27  A    between atoms: _60  and  _62
REMARK   28  A    between atoms: _62  and  _63
REMARK   29  A    between atoms: _65  and  _67
REMARK   30  A    between atoms: _67  and  _68
REMARK   31  A    between atoms: _67  and  _70
REMARK   32  A    between atoms: _70  and  _71
REMARK   33  A    between atoms: _73  and  _75
REMARK   34  A    between atoms: _75  and  _76
REMARK   35  A    between atoms: _75  and  _78
REMARK   36  A    between atoms: _78  and  _79
REMARK   37  A    between atoms: _84  and  _86
REMARK   38  A    between atoms: _86  and  _87
REMARK   39  A    between atoms: _86  and  _89
REMARK   40  A    between atoms: _89  and  _90
REMARK   41  A    between atoms: _93  and  _95
REMARK   42  A    between atoms: _95  and  _96
REMARK   43  A    between atoms: _99  and  _101
REMARK   44  A    between atoms: _101  and  _102
REMARK   45  A    between atoms: _101  and  _104
REMARK   46  A    between atoms: _104  and  _105
REMARK   47  A    between atoms: _108  and  _110
REMARK   48  A    between atoms: _110  and  _111
REMARK   49  A    between atoms: _110  and  _113
REMARK   50  A    between atoms: _113  and  _114
REMARK   51  A    between atoms: _120  and  _122
REMARK   52  A    between atoms: _122  and  _123
REMARK   53  A    between atoms: _126  and  _128
REMARK   54  A    between atoms: _128  and  _129
REMARK   55  A    between atoms: _128  and  _131
REMARK   56  A    between atoms: _131  and  _132
REMARK   57  A    between atoms: _135  and  _137
REMARK   58  A    between atoms: _137  and  _138
REMARK   59  A    between atoms: _140  and  _142
REMARK   60  A    between atoms: _142  and  _143
REMARK   61  A    between atoms: _142  and  _145
REMARK   62  A    between atoms: _145  and  _146
REMARK   63  A    between atoms: _146  and  _147
REMARK   64  A    between atoms: _152  and  _154
REMARK   65  A    between atoms: _154  and  _155
REMARK   66  A    between atoms: _157  and  _159
REMARK   67  A    between atoms: _159  and  _160
REMARK   68  A    between atoms: _159  and  _162
REMARK   69  A    between atoms: _162  and  _163
REMARK   70  A    between atoms: _166  and  _168
REMARK   71  A    between atoms: _168  and  _169
REMARK   72  A    between atoms: _168  and  _171
REMARK   73  A    between atoms: _171  and  _172
REMARK   74  A    between atoms: _178  and  _180
REMARK   75  A    between atoms: _180  and  _181
REMARK   76  A    between atoms: _180  and  _183
REMARK   77  A    between atoms: _183  and  _184
REMARK   78  A    between atoms: _187  and  _189
REMARK   79  A    between atoms: _189  and  _190
REMARK   80  A    between atoms: _189  and  _192
REMARK   81  A    between atoms: _192  and  _193
REMARK   82  A    between atoms: _199  and  _201
REMARK   83  A    between atoms: _201  and  _202
REMARK   84  A    between atoms: _201  and  _204
REMARK   85  A    between atoms: _204  and  _205
REMARK   86  A    between atoms: _211  and  _213
REMARK   87  A    between atoms: _213  and  _214
REMARK   88  A    between atoms: _213  and  _216
REMARK   89  A    between atoms: _216  and  _217
REMARK   90  A    between atoms: _220  and  _222
REMARK   91  A    between atoms: _222  and  _223
REMARK   92  A    between atoms: _222  and  _225
REMARK   93  A    between atoms: _225  and  _226
REMARK   94  A    between atoms: _229  and  _231
REMARK   95  A    between atoms: _231  and  _232
REMARK   96  A    between atoms: _231  and  _234
REMARK   97  A    between atoms: _234  and  _235
REMARK   98  A    between atoms: _235  and  _236
REMARK   99  A    between atoms: _236  and  _237
REMARK  100  A    between atoms: _246  and  _248
REMARK  101  A    between atoms: _248  and  _249
REMARK  102  A    between atoms: _248  and  _251
REMARK  103  A    between atoms: _251  and  _252
REMARK  104  A    between atoms: _255  and  _257
REMARK  105  A    between atoms: _257  and  _258
REMARK  106  A    between atoms: _257  and  _260
REMARK  107  A    between atoms: _260  and  _261
REMARK  108  A    between atoms: _263  and  _265
REMARK  109  A    between atoms: _265  and  _266
REMARK  110  A    between atoms: _265  and  _268
REMARK  111  A    between atoms: _268  and  _269
REMARK  112  A    between atoms: _269  and  _270
REMARK  113  A    between atoms: _275  and  _277
REMARK  114  A    between atoms: _277  and  _278
REMARK  115  A    between atoms: _277  and  _280
REMARK  116  A    between atoms: _280  and  _281
REMARK  117  A    between atoms: _283  and  _285
REMARK  118  A    between atoms: _285  and  _286
REMARK  119  A    between atoms: _288  and  _290
REMARK  120  A    between atoms: _290  and  _291
REMARK  121  A    between atoms: _290  and  _293
REMARK  122  A    between atoms: _293  and  _294
REMARK  123  A    between atoms: _299  and  _301
REMARK  124  A    between atoms: _301  and  _302
REMARK  125  A    between atoms: _304  and  _306
REMARK  126  A    between atoms: _306  and  _307
REMARK  127  A    between atoms: _306  and  _309
REMARK  128  A    between atoms: _309  and  _310
REMARK  129  A    between atoms: _315  and  _316
REMARK  130  A    between atoms: _318  and  _320
REMARK  131  A    between atoms: _320  and  _321
REMARK  132  A    between atoms: _320  and  _323
REMARK  133  A    between atoms: _323  and  _324
REMARK  134  A    between atoms: _330  and  _332
REMARK  135  A    between atoms: _332  and  _333
REMARK  136  A    between atoms: _332  and  _335
REMARK  137  A    between atoms: _335  and  _336
REMARK  138  A    between atoms: _339  and  _341
REMARK  139  A    between atoms: _341  and  _342
REMARK  140  A    between atoms: _341  and  _344
REMARK  141  A    between atoms: _344  and  _345
REMARK  142  A    between atoms: _345  and  _346
REMARK  143  A    between atoms: _349  and  _351
REMARK  144  A    between atoms: _351  and  _352
REMARK  145  A    between atoms: _351  and  _354
REMARK  146  A    between atoms: _354  and  _355
REMARK  147  A    between atoms: _358  and  _360
REMARK  148  A    between atoms: _360  and  _361
REMARK  149  A    between atoms: _360  and  _363
REMARK  150  A    between atoms: _363  and  _364
REMARK  151  A    between atoms: _367  and  _369
REMARK  152  A    between atoms: _369  and  _370
REMARK  153  A    between atoms: _372  and  _374
REMARK  154  A    between atoms: _374  and  _375
REMARK  155  A    between atoms: _374  and  _377
REMARK  156  A    between atoms: _380  and  _382
REMARK  157  A    between atoms: _382  and  _383
REMARK  158  A    between atoms: _382  and  _385
REMARK  159  A    between atoms: _385  and  _386
REMARK  160  A    between atoms: _388  and  _390
REMARK  161  A    between atoms: _390  and  _391
REMARK  162  A    between atoms: _390  and  _393
REMARK  163  A    between atoms: _393  and  _394
REMARK  164  A    between atoms: _394  and  _395
REMARK  165  A    between atoms: _397  and  _399
REMARK  166  A    between atoms: _399  and  _400
REMARK  167  A    between atoms: _399  and  _402
REMARK  168  A    between atoms: _402  and  _403
REMARK  169  A    between atoms: _408  and  _409
REMARK  170  A    between atoms: _411  and  _413
REMARK  171  A    between atoms: _413  and  _414
REMARK  172  A    between atoms: _413  and  _416
REMARK  173  A    between atoms: _416  and  _417
REMARK  174  A    between atoms: _420  and  _422
REMARK  175  A    between atoms: _422  and  _423
REMARK  176  A    between atoms: _422  and  _425
REMARK  177  A    between atoms: _425  and  _426
REMARK  178  A    between atoms: _428  and  _430
REMARK  179  A    between atoms: _430  and  _431
REMARK  180  A    between atoms: _430  and  _433
REMARK  181  A    between atoms: _433  and  _434
REMARK  182  A    between atoms: _437  and  _439
REMARK  183  A    between atoms: _439  and  _440
REMARK  184  A    between atoms: _439  and  _442
REMARK  185  A    between atoms: _442  and  _443
REMARK  186  A    between atoms: _448  and  _449
REMARK  187  A    between atoms: _451  and  _453
REMARK  188  A    between atoms: _453  and  _454
REMARK  189  A    between atoms: _453  and  _456
REMARK  190  A    between atoms: _456  and  _457
REMARK  191  A    between atoms: _459  and  _461
REMARK  192  A    between atoms: _461  and  _462
REMARK  193  A    between atoms: _461  and  _464
REMARK  194  A    between atoms: _464  and  _465
REMARK  195  A    between atoms: _471  and  _473
REMARK  196  A    between atoms: _473  and  _474
REMARK  197  A    between atoms: _473  and  _476
REMARK  198  A    between atoms: _476  and  _477
REMARK  199  A    between atoms: _477  and  _478
REMARK  200  A    between atoms: _478  and  _479
REMARK  201  A    between atoms: _488  and  _490
REMARK  202  A    between atoms: _490  and  _491
REMARK  203  A    between atoms: _490  and  _493
REMARK  204  A    between atoms: _496  and  _498
REMARK  205  A    between atoms: _498  and  _499
REMARK  206  A    between atoms: _501  and  _503
REMARK  207  A    between atoms: _503  and  _504
REMARK  208  A    between atoms: _503  and  _506
REMARK  209  A    between atoms: _506  and  _507
REMARK  210  A    between atoms: _510  and  _512
REMARK  211  A    between atoms: _512  and  _513
REMARK  212  A    between atoms: _512  and  _515
REMARK  213  A    between atoms: _515  and  _516
REMARK  214  A    between atoms: _516  and  _517
REMARK  215  A    between atoms: _519  and  _521
REMARK  216  A    between atoms: _521  and  _522
REMARK  217  A    between atoms: _521  and  _524
REMARK  218  A    between atoms: _524  and  _525
REMARK  219  A    between atoms: _531  and  _533
REMARK  220  A    between atoms: _533  and  _534
REMARK  221  A    between atoms: _533  and  _536
REMARK  222  A    between atoms: _536  and  _537
REMARK  223  A    between atoms: _542  and  _544
REMARK  224  A    between atoms: _544  and  _545
REMARK  225  A    between atoms: _544  and  _547
REMARK  226  A    between atoms: _547  and  _548
REMARK  227  A    between atoms: _558  and  _560
REMARK  228  A    between atoms: _560  and  _561
REMARK  229  A    between atoms: _560  and  _563
REMARK  230  A    between atoms: _566  and  _568
REMARK  231  A    between atoms: _568  and  _569
REMARK  232  A    between atoms: _568  and  _571
REMARK  233  A    between atoms: _571  and  _572
REMARK  234  A    between atoms: _575  and  _577
REMARK  235  A    between atoms: _577  and  _578
REMARK  236  A    between atoms: _577  and  _580
REMARK  237  A    between atoms: _580  and  _581
REMARK  238  A    between atoms: _581  and  _582
REMARK  239  A    between atoms: _584  and  _586
REMARK  240  A    between atoms: _586  and  _587
REMARK  241  A    between atoms: _586  and  _589
REMARK  242  A    between atoms: _589  and  _590
REMARK  243  A    between atoms: _593  and  _595
REMARK  244  A    between atoms: _595  and  _596
REMARK  245  A    between atoms: _595  and  _598
REMARK  246  A    between atoms: _598  and  _599
REMARK  247  A    between atoms: _602  and  _604
REMARK  248  A    between atoms: _604  and  _605
REMARK  249  A    between atoms: _607  and  _609
REMARK  250  A    between atoms: _609  and  _610
REMARK  251  A    between atoms: _609  and  _612
REMARK  252  A    between atoms: _612  and  _613
REMARK  253  A    between atoms: _615  and  _617
REMARK  254  A    between atoms: _617  and  _618
REMARK  255  A    between atoms: _617  and  _620
REMARK  256  A    between atoms: _620  and  _621
REMARK  257  A    between atoms: _631  and  _633
REMARK  258  A    between atoms: _633  and  _634
REMARK  259  A    between atoms: _633  and  _636
REMARK  260  A    between atoms: _636  and  _637
REMARK  261  A    between atoms: _639  and  _641
REMARK  262  A    between atoms: _641  and  _642
REMARK  263  A    between atoms: _641  and  _644
REMARK  264  A    between atoms: _644  and  _645
REMARK  265  A    between atoms: _648  and  _650
REMARK  266  A    between atoms: _650  and  _651
REMARK  267  A    between atoms: _654  and  _656
REMARK  268  A    between atoms: _656  and  _657
REMARK  269  A    between atoms: _656  and  _659
REMARK  270  A    between atoms: _659  and  _660
REMARK  271  A    between atoms: _662  and  _664
REMARK  272  A    between atoms: _664  and  _665
REMARK  273  A    between atoms: _664  and  _667
REMARK  274  A    between atoms: _667  and  _668
REMARK  275  A    between atoms: _668  and  _669
REMARK  276  A    between atoms: _673  and  _674
REMARK  277  A    between atoms: _679  and  _681
REMARK  278  A    between atoms: _681  and  _682
REMARK  279  A    between atoms: _681  and  _684
REMARK  280  A    between atoms: _684  and  _685
REMARK  281  A    between atoms: _687  and  _689
REMARK  282  A    between atoms: _689  and  _690
REMARK  283  A    between atoms: _689  and  _692
REMARK  284  A    between atoms: _692  and  _693
REMARK  285  A    between atoms: _693  and  _694
REMARK  286  A    between atoms: _699  and  _701
REMARK  287  A    between atoms: _701  and  _702
REMARK  288  A    between atoms: _701  and  _704
REMARK  289  A    between atoms: _704  and  _705
REMARK  290  A    between atoms: _705  and  _706
REMARK  291  A    between atoms: _711  and  _713
REMARK  292  A    between atoms: _713  and  _714
REMARK  293  A    between atoms: _713  and  _716
REMARK  294  A    between atoms: _716  and  _717
REMARK  295  A    between atoms: _720  and  _722
REMARK  296  A    between atoms: _722  and  _723
REMARK  297  A    between atoms: _722  and  _725
REMARK  298  A    between atoms: _725  and  _726
REMARK  299  A    between atoms: _729  and  _731
REMARK  300  A    between atoms: _731  and  _732
REMARK  301  A    between atoms: _731  and  _734
REMARK  302  A    between atoms: _734  and  _735
REMARK  303  A    between atoms: _741  and  _743
REMARK  304  A    between atoms: _743  and  _744
REMARK  305  A    between atoms: _743  and  _746
REMARK  306  A    between atoms: _746  and  _747
REMARK  307  A    between atoms: _752  and  _753
REMARK  308  A    between atoms: _755  and  _757
REMARK  309  A    between atoms: _757  and  _758
REMARK  310  A    between atoms: _757  and  _760
REMARK  311  A    between atoms: _760  and  _761
REMARK  312  A    between atoms: _767  and  _769
REMARK  313  A    between atoms: _769  and  _770
REMARK  314  A    between atoms: _769  and  _772
REMARK  315  A    between atoms: _772  and  _773
REMARK  316  A    between atoms: _778  and  _780
REMARK  317  A    between atoms: _780  and  _781
REMARK  318  A    between atoms: _780  and  _783
REMARK  319  A    between atoms: _783  and  _784
REMARK  320  A    between atoms: _784  and  _785
REMARK                            x       y       z     vdW  Elec       q    Type
REMARK                         _______ _______ _______ _____ _____    ______ ____
ROOT
ATOM      1  CB  PHE A   1      10.294  56.864  36.447  0.00  0.00    +0.051 C 
ENDROOT
BRANCH   1   2
ATOM      2  CG  PHE A   1      10.477  56.626  34.949  0.00  0.00    -0.020 A 
ATOM      3  CD2 PHE A   1       9.601  55.824  34.278  0.00  0.00    -0.004 A 
ATOM      4  CE2 PHE A   1       9.792  55.628  32.912  0.00  0.00    -0.000 A 
ATOM      5  CZ  PHE A   1      10.803  56.249  32.237  0.00  0.00    -0.000 A 
ATOM      6  CE1 PHE A   1      11.707  57.015  32.883  0.00  0.00    -0.000 A 
ATOM      7  CD1 PHE A   1      11.525  57.225  34.246  0.00  0.00    -0.004 A 
ENDBRANCH   1   2
BRANCH   1   8
ATOM      8  CA  PHE A   1      11.609  57.209  37.230  0.00  0.00    +0.137 C 
BRANCH   8   9
ATOM      9  N   PHE A   1      12.526  56.027  37.259  0.00  0.00    -0.239 NA
ATOM     10  H   PHE A   1      12.167  55.105  36.938  0.00  0.00    +0.142 HD
ENDBRANCH   8   9
BRANCH   8  11
ATOM     11  C   PHE A   1      11.215  57.744  38.584  0.00  0.00    +0.224 C 
ATOM     12  O   PHE A   1      10.955  58.881  38.711  0.00  0.00    -0.287 OA
ENDBRANCH   8  11
ENDBRANCH   1   8
TORSDOF 4
REMARK  Name = ../refined-set-2016/3drf/3drf_pocket.pdb
REMARK  320 active torsions:
REMARK  status: ('A' for Active; 'I' for Inactive)
REMARK    1  A    between atoms: _1  and  _3
REMARK    2  A    between atoms: _3  and  _4
REMARK    3  A    between atoms: _3  and  _6
REMARK    4  A    between atoms: _6  and  _7
REMARK    5  A    between atoms: _12  and  _13
REMARK    6  A    between atoms: _15  and  _17
REMARK    7  A    between atoms: _17  and  _18
REMARK    8  A    between atoms: _17  and  _20
REMARK    9  A    between atoms: _20  and  _21
REMARK   10  A    between atoms: _21  and  _22
REMARK   11  A    between atoms: _27  and  _29
REMARK   12  A    between atoms: _29  and  _30
REMARK   13  A    between atoms: _29  and  _32
REMARK   14  A    between atoms: _32  and  _33
REMARK   15  A    between atoms: _35  and  _37
REMARK   16  A    between atoms: _37  and  _38
REMARK   17  A    between atoms: _37  and  _40
REMARK   18  A    between atoms: _40  and  _41
REMARK   19  A    between atoms: _44  and  _46
REMARK   20  A    between atoms: _46  and  _47
REMARK   21  A    between atoms: _46  and  _49
REMARK   22  A    between atoms: _49  and  _50
REMARK   23  A    between atoms: _52  and  _54
REMARK   24  A    between atoms: _54  and  _55
REMARK   25  A    between atoms: _54  and  _57
REMARK   26  A    between atoms: _57  and  _58
REMARK   27  A    between atoms: _60  and  _62
REMARK   28  A    between atoms: _62  and  _63
REMARK   29  A    between atoms: _65  and  _67
REMARK   30  A    between atoms: _67  and  _68
REMARK   31  A    between atoms: _67  and  _70
REMARK   32  A    between atoms: _70  and  _71
REMARK   33  A    between atoms: _73  and  _75
REMARK   34  A    between atoms: _75  and  _76
REMARK   35  A    between atoms: _75  and  _78
REMARK   36  A    between atoms: _78  and  _79
REMARK   37  A    between atoms: _84  and  _86
REMARK   38  A    between atoms: _86  and  _87
REMARK   39  A    between atoms: _86  and  _89
REMARK   40  A    between atoms: _89  and  _90
REMARK   41  A    between atoms: _93  and  _95
REMARK   42  A    between atoms: _95  and  _96
REMARK   43  A    between atoms: _99  and  _101
REMARK   44  A    between atoms: _101  and  _102
REMARK   45  A    between atoms: _101  and  _104
REMARK   46  A    between atoms: _104  and  _105
REMARK   47  A    between atoms: _108  and  _110
REMARK   48  A    between atoms: _110  and  _111
REMARK   49  A    between atoms: _110  and  _113
REMARK   50  A    between atoms: _113  and  _114
REMARK   51  A    between atoms: _120  and  _122
REMARK   52  A    between atoms: _122  and  _123
REMARK   53  A    between atoms: _126  and  _128
REMARK   54  A    between atoms: _128  and  _129
REMARK   55  A    between atoms: _128  and  _131
REMARK   56  A    between atoms: _131  and  _132
REMARK   57  A    between atoms: _135  and  _137
REMARK   58  A    between atoms: _137  and  _138
REMARK   59  A    between atoms: _140  and  _142
REMARK   60  A    between atoms: _142  and  _143
REMARK   61  A    between atoms: _142  and  _145
REMARK   62  A    between atoms: _145  and  _146
REMARK   63  A    between atoms: _146  and  _147
REMARK   64  A    between atoms: _152  and  _154
REMARK   65  A    between atoms: _154  and  _155
REMARK   66  A    between atoms: _157  and  _159
REMARK   67  A    between atoms: _159  and  _160
REMARK   68  A    between atoms: _159  and  _162
REMARK   69  A    between atoms: _162  and  _163
REMARK   70  A    between atoms: _166  and  _168
REMARK   71  A    between atoms: _168  and  _169
REMARK   72  A    between atoms: _168  and  _171
REMARK   73  A    between atoms: _171  and  _172
REMARK   74  A    between atoms: _178  and  _180
REMARK   75  A    between atoms: _180  and  _181
REMARK   76  A    between atoms: _180  and  _183
REMARK   77  A    between atoms: _183  and  _184
REMARK   78  A    between atoms: _187  and  _189
REMARK   79  A    between atoms: _189  and  _190
REMARK   80  A    between atoms: _189  and  _192
REMARK   81  A    between atoms: _192  and  _193
REMARK   82  A    between atoms: _199  and  _201
REMARK   83  A    between atoms: _201  and  _202
REMARK   84  A    between atoms: _201  and  _204
REMARK   85  A    between atoms: _204  and  _205
REMARK   86  A    between atoms: _211  and  _213
REMARK   87  A    between atoms: _213  and  _214
REMARK   88  A    between atoms: _213  and  _216
REMARK   89  A    between atoms: _216  and  _217
REMARK   90  A    between atoms: _220  and  _222
REMARK   91  A    between atoms: _222  and  _223
REMARK   92  A    between atoms: _222  and  _225
REMARK   93  A    between atoms: _225  and  _226
REMARK   94  A    between atoms: _229  and  _231
REMARK   95  A    between atoms: _231  and  _232
REMARK   96  A    between atoms: _231  and  _234
REMARK   97  A    between atoms: _234  and  _235
REMARK   98  A    between atoms: _235  and  _236
REMARK   99  A    between atoms: _236  and  _237
REMARK  100  A    between atoms: _246  and  _248
REMARK  101  A    between atoms: _248  and  _249
REMARK  102  A    between atoms: _248  and  _251
REMARK  103  A    between atoms: _251  and  _252
REMARK  104  A    between atoms: _255  and  _257
REMARK  105  A    between atoms: _257  and  _258
REMARK  106  A    between atoms: _257  and  _260
REMARK  107  A    between atoms: _260  and  _261
REMARK  108  A    between atoms: _263  and  _265
REMARK  109  A    between atoms: _265  and  _266
REMARK  110  A    between atoms: _265  and  _268
REMARK  111  A    between atoms: _268  and  _269
REMARK  112  A    between atoms: _269  and  _270
REMARK  113  A    between atoms: _275  and  _277
REMARK  114  A    between atoms: _277  and  _278
REMARK  115  A    between atoms: _277  and  _280
REMARK  116  A    between atoms: _280  and  _281
REMARK  117  A    between atoms: _283  and  _285
REMARK  118  A    between atoms: _285  and  _286
REMARK  119  A    between atoms: _288  and  _290
REMARK  120  A    between atoms: _290  and  _291
REMARK  121  A    between atoms: _290  and  _293
REMARK  122  A    between atoms: _293  and  _294
REMARK  123  A    between atoms: _299  and  _301
REMARK  124  A    between atoms: _301  and  _302
REMARK  125  A    between atoms: _304  and  _306
REMARK  126  A    between atoms: _306  and  _307
REMARK  127  A    between atoms: _306  and  _309
REMARK  128  A    between atoms: _309  and  _310
REMARK  129  A    between atoms: _315  and  _316
REMARK  130  A    between atoms: _318  and  _320
REMARK  131  A    between atoms: _320  and  _321
REMARK  132  A    between atoms: _320  and  _323
REMARK  133  A    between atoms: _323  and  _324
REMARK  134  A    between atoms: _330  and  _332
REMARK  135  A    between atoms: _332  and  _333
REMARK  136  A    between atoms: _332  and  _335
REMARK  137  A    between atoms: _335  and  _336
REMARK  138  A    between atoms: _339  and  _341
REMARK  139  A    between atoms: _341  and  _342
REMARK  140  A    between atoms: _341  and  _344
REMARK  141  A    between atoms: _344  and  _345
REMARK  142  A    between atoms: _345  and  _346
REMARK  143  A    between atoms: _349  and  _351
REMARK  144  A    between atoms: _351  and  _352
REMARK  145  A    between atoms: _351  and  _354
REMARK  146  A    between atoms: _354  and  _355
REMARK  147  A    between atoms: _358  and  _360
REMARK  148  A    between atoms: _360  and  _361
REMARK  149  A    between atoms: _360  and  _363
REMARK  150  A    between atoms: _363  and  _364
REMARK  151  A    between atoms: _367  and  _369
REMARK  152  A    between atoms: _369  and  _370
REMARK  153  A    between atoms: _372  and  _374
REMARK  154  A    between atoms: _374  and  _375
REMARK  155  A    between atoms: _374  and  _377
REMARK  156  A    between atoms: _380  and  _382
REMARK  157  A    between atoms: _382  and  _383
REMARK  158  A    between atoms: _382  and  _385
REMARK  159  A    between atoms: _385  and  _386
REMARK  160  A    between atoms: _388  and  _390
REMARK  161  A    between atoms: _390  and  _391
REMARK  162  A    between atoms: _390  and  _393
REMARK  163  A    between atoms: _393  and  _394
REMARK  164  A    between atoms: _394  and  _395
REMARK  165  A    between atoms: _397  and  _399
REMARK  166  A    between atoms: _399  and  _400
REMARK  167  A    between atoms: _399  and  _402
REMARK  168  A    between atoms: _402  and  _403
REMARK  169  A    between atoms: _408  and  _409
REMARK  170  A    between atoms: _411  and  _413
REMARK  171  A    between atoms: _413  and  _414
REMARK  172  A    between atoms: _413  and  _416
REMARK  173  A    between atoms: _416  and  _417
REMARK  174  A    between atoms: _420  and  _422
REMARK  175  A    between atoms: _422  and  _423
REMARK  176  A    between atoms: _422  and  _425
REMARK  177  A    between atoms: _425  and  _426
REMARK  178  A    between atoms: _428  and  _430
REMARK  179  A    between atoms: _430  and  _431
REMARK  180  A    between atoms: _430  and  _433
REMARK  181  A    between atoms: _433  and  _434
REMARK  182  A    between atoms: _437  and  _439
REMARK  183  A    between atoms: _439  and  _440
REMARK  184  A    between atoms: _439  and  _442
REMARK  185  A    between atoms: _442  and  _443
REMARK  186  A    between atoms: _448  and  _449
REMARK  187  A    between atoms: _451  and  _453
REMARK  188  A    between atoms: _453  and  _454
REMARK  189  A    between atoms: _453  and  _456
REMARK  190  A    between atoms: _456  and  _457
REMARK  191  A    between atoms: _459  and  _461
REMARK  192  A    between atoms: _461  and  _462
REMARK  193  A    between atoms: _461  and  _464
REMARK  194  A    between atoms: _464  and  _465
REMARK  195  A    between atoms: _471  and  _473
REMARK  196  A    between atoms: _473  and  _474
REMARK  197  A    between atoms: _473  and  _476
REMARK  198  A    between atoms: _476  and  _477
REMARK  199  A    between atoms: _477  and  _478
REMARK  200  A    between atoms: _478  and  _479
REMARK  201  A    between atoms: _488  and  _490
REMARK  202  A    between atoms: _490  and  _491
REMARK  203  A    between atoms: _490  and  _493
REMARK  204  A    between atoms: _496  and  _498
REMARK  205  A    between atoms: _498  and  _499
REMARK  206  A    between atoms: _501  and  _503
REMARK  207  A    between atoms: _503  and  _504
REMARK  208  A    between atoms: _503  and  _506
REMARK  209  A    between atoms: _506  and  _507
REMARK  210  A    between atoms: _510  and  _512
REMARK  211  A    between atoms: _512  and  _513
REMARK  212  A    between atoms: _512  and  _515
REMARK  213  A    between atoms: _515  and  _516
REMARK  214  A    between atoms: _516  and  _517
REMARK  215  A    between atoms: _519  and  _521
REMARK  216  A    between atoms: _521  and  _522
REMARK  217  A    between atoms: _521  and  _524
REMARK  218  A    between atoms: _524  and  _525
REMARK  219  A    between atoms: _531  and  _533
REMARK  220  A    between atoms: _533  and  _534
REMARK  221  A    between atoms: _533  and  _536
REMARK  222  A    between atoms: _536  and  _537
REMARK  223  A    between atoms: _542  and  _544
REMARK  224  A    between atoms: _544  and  _545
REMARK  225  A    between atoms: _544  and  _547
REMARK  226  A    between atoms: _547  and  _548
REMARK  227  A    between atoms: _558  and  _560
REMARK  228  A    between atoms: _560  and  _561
REMARK  229  A    between atoms: _560  and  _563
REMARK  230  A    between atoms: _566  and  _568
REMARK  231  A    between atoms: _568  and  _569
REMARK  232  A    between atoms: _568  and  _571
REMARK  233  A    between atoms: _571  and  _572
REMARK  234  A    between atoms: _575  and  _577
REMARK  235  A    between atoms: _577  and  _578
REMARK  236  A    between atoms: _577  and  _580
REMARK  237  A    between atoms: _580  and  _581
REMARK  238  A    between atoms: _581  and  _582
REMARK  239  A    between atoms: _584  and  _586
REMARK  240  A    between atoms: _586  and  _587
REMARK  241  A    between atoms: _586  and  _589
REMARK  242  A    between atoms: _589  and  _590
REMARK  243  A    between atoms: _593  and  _595
REMARK  244  A    between atoms: _595  and  _596
REMARK  245  A    between atoms: _595  and  _598
REMARK  246  A    between atoms: _598  and  _599
REMARK  247  A    between atoms: _602  and  _604
REMARK  248  A    between atoms: _604  and  _605
REMARK  249  A    between atoms: _607  and  _609
REMARK  250  A    between atoms: _609  and  _610
REMARK  251  A    between atoms: _609  and  _612
REMARK  252  A    between atoms: _612  and  _613
REMARK  253  A    between atoms: _615  and  _617
REMARK  254  A    between atoms: _617  and  _618
REMARK  255  A    between atoms: _617  and  _620
REMARK  256  A    between atoms: _620  and  _621
REMARK  257  A    between atoms: _631  and  _633
REMARK  258  A    between atoms: _633  and  _634
REMARK  259  A    between atoms: _633  and  _636
REMARK  260  A    between atoms: _636  and  _637
REMARK  261  A    between atoms: _639  and  _641
REMARK  262  A    between atoms: _641  and  _642
REMARK  263  A    between atoms: _641  and  _644
REMARK  264  A    between atoms: _644  and  _645
REMARK  265  A    between atoms: _648  and  _650
REMARK  266  A    between atoms: _650  and  _651
REMARK  267  A    between atoms: _654  and  _656
REMARK  268  A    between atoms: _656  and  _657
REMARK  269  A    between atoms: _656  and  _659
REMARK  270  A    between atoms: _659  and  _660
REMARK  271  A    between atoms: _662  and  _664
REMARK  272  A    between atoms: _664  and  _665
REMARK  273  A    between atoms: _664  and  _667
REMARK  274  A    between atoms: _667  and  _668
REMARK  275  A    between atoms: _668  and  _669
REMARK  276  A    between atoms: _673  and  _674
REMARK  277  A    between atoms: _679  and  _681
REMARK  278  A    between atoms: _681  and  _682
REMARK  279  A    between atoms: _681  and  _684
REMARK  280  A    between atoms: _684  and  _685
REMARK  281  A    between atoms: _687  and  _689
REMARK  282  A    between atoms: _689  and  _690
REMARK  283  A    between atoms: _689  and  _692
REMARK  284  A    between atoms: _692  and  _693
REMARK  285  A    between atoms: _693  and  _694
REMARK  286  A    between atoms: _699  and  _701
REMARK  287  A    between atoms: _701  and  _702
REMARK  288  A    between atoms: _701  and  _704
REMARK  289  A    between atoms: _704  and  _705
REMARK  290  A    between atoms: _705  and  _706
REMARK  291  A    between atoms: _711  and  _713
REMARK  292  A    between atoms: _713  and  _714
REMARK  293  A    between atoms: _713  and  _716
REMARK  294  A    between atoms: _716  and  _717
REMARK  295  A    between atoms: _720  and  _722
REMARK  296  A    between atoms: _722  and  _723
REMARK  297  A    between atoms: _722  and  _725
REMARK  298  A    between atoms: _725  and  _726
REMARK  299  A    between atoms: _729  and  _731
REMARK  300  A    between atoms: _731  and  _732
REMARK  301  A    between atoms: _731  and  _734
REMARK  302  A    between atoms: _734  and  _735
REMARK  303  A    between atoms: _741  and  _743
REMARK  304  A    between atoms: _743  and  _744
REMARK  305  A    between atoms: _743  and  _746
REMARK  306  A    between atoms: _746  and  _747
REMARK  307  A    between atoms: _752  and  _753
REMARK  308  A    between atoms: _755  and  _757
REMARK  309  A    between atoms: _757  and  _758
REMARK  310  A    between atoms: _757  and  _760
REMARK  311  A    between atoms: _760  and  _761
REMARK  312  A    between atoms: _767  and  _769
REMARK  313  A    between atoms: _769  and  _770
REMARK  314  A    between atoms: _769  and  _772
REMARK  315  A    between atoms: _772  and  _773
REMARK  316  A    between atoms: _778  and  _780
REMARK  317  A    between atoms: _780  and  _781
REMARK  318  A    between atoms: _780  and  _783
REMARK  319  A    between atoms: _783  and  _784
REMARK  320  A    between atoms: _784  and  _785
REMARK                            x       y       z     vdW  Elec       q    Type
REMARK                         _______ _______ _______ _____ _____    ______ ____
ROOT
ATOM      1  CB  ASN A   1      -0.037  43.177  33.608  0.00  0.00    +0.110 C 
ENDROOT
BRANCH   1   2
ATOM      2  CG  ASN A   1      -1.422  43.242  34.219  0.00  0.00    +0.221 C 
ATOM      3  ND2 ASN A   1      -1.755  42.293  34.920  0.00  0.00    -0.329 N 
ATOM      4 HD21 ASN A   1      -2.700  42.273  35.353  0.00  0.00    +0.145 HD
ATOM      5 HD22 ASN A   1      -1.092  41.508  35.081  0.00  0.00    +0.145 HD
ATOM      6  OD1 ASN A   1      -2.132  44.168  33.997  0.00  0.00    -0.275 OA
ENDBRANCH   1   2
BRANCH   1   7
ATOM      7  CA  ASN A   1       1.037  42.717  34.591  0.00  0.00    +0.142 C 
BRANCH   7   8
ATOM      8  N   ASN A   1       1.359  43.806  35.559  0.00  0.00    -0.239 NA
ATOM      9  H   ASN A   1       1.883  44.637  35.218  0.00  0.00    +0.142 HD
ENDBRANCH   7   8
BRANCH   7  10
ATOM     10  C   ASN A   1       2.197  42.176  33.728  0.00  0.00    +0.225 C 
ATOM     11  O   ASN A   1       3.124  42.866  33.368  0.00  0.00    -0.287 OA
ENDBRANCH   7  10
ENDBRANCH   1   7
TORSDOF 4
REMARK  Name = ../refined-set-2016/3drf/3drf_pocket.pdb
REMARK  320 active torsions:
REMARK  status: ('A' for Active; 'I' for Inactive)
REMARK    1  A    between atoms: _1  and  _3
REMARK    2  A    between atoms: _3  and  _4
REMARK    3  A    between atoms: _3  and  _6
REMARK    4  A    between atoms: _6  and  _7
REMARK    5  A    between atoms: _12  and  _13
REMARK    6  A    between atoms: _15  and  _17
REMARK    7  A    between atoms: _17  and  _18
REMARK    8  A    between atoms: _17  and  _20
REMARK    9  A    between atoms: _20  and  _21
REMARK   10  A    between atoms: _21  and  _22
REMARK   11  A    between atoms: _27  and  _29
REMARK   12  A    between atoms: _29  and  _30
REMARK   13  A    between atoms: _29  and  _32
REMARK   14  A    between atoms: _32  and  _33
REMARK   15  A    between atoms: _35  and  _37
REMARK   16  A    between atoms: _37  and  _38
REMARK   17  A    between atoms: _37  and  _40
REMARK   18  A    between atoms: _40  and  _41
REMARK   19  A    between atoms: _44  and  _46
REMARK   20  A    between atoms: _46  and  _47
REMARK   21  A    between atoms: _46  and  _49
REMARK   22  A    between atoms: _49  and  _50
REMARK   23  A    between atoms: _52  and  _54
REMARK   24  A    between atoms: _54  and  _55
REMARK   25  A    between atoms: _54  and  _57
REMARK   26  A    between atoms: _57  and  _58
REMARK   27  A    between atoms: _60  and  _62
REMARK   28  A    between atoms: _62  and  _63
REMARK   29  A    between atoms: _65  and  _67
REMARK   30  A    between atoms: _67  and  _68
REMARK   31  A    between atoms: _67  and  _70
REMARK   32  A    between atoms: _70  and  _71
REMARK   33  A    between atoms: _73  and  _75
REMARK   34  A    between atoms: _75  and  _76
REMARK   35  A    between atoms: _75  and  _78
REMARK   36  A    between atoms: _78  and  _79
REMARK   37  A    between atoms: _84  and  _86
REMARK   38  A    between atoms: _86  and  _87
REMARK   39  A    between atoms: _86  and  _89
REMARK   40  A    between atoms: _89  and  _90
REMARK   41  A    between atoms: _93  and  _95
REMARK   42  A    between atoms: _95  and  _96
REMARK   43  A    between atoms: _99  and  _101
REMARK   44  A    between atoms: _101  and  _102
REMARK   45  A    between atoms: _101  and  _104
REMARK   46  A    between atoms: _104  and  _105
REMARK   47  A    between atoms: _108  and  _110
REMARK   48  A    between atoms: _110  and  _111
REMARK   49  A    between atoms: _110  and  _113
REMARK   50  A    between atoms: _113  and  _114
REMARK   51  A    between atoms: _120  and  _122
REMARK   52  A    between atoms: _122  and  _123
REMARK   53  A    between atoms: _126  and  _128
REMARK   54  A    between atoms: _128  and  _129
REMARK   55  A    between atoms: _128  and  _131
REMARK   56  A    between atoms: _131  and  _132
REMARK   57  A    between atoms: _135  and  _137
REMARK   58  A    between atoms: _137  and  _138
REMARK   59  A    between atoms: _140  and  _142
REMARK   60  A    between atoms: _142  and  _143
REMARK   61  A    between atoms: _142  and  _145
REMARK   62  A    between atoms: _145  and  _146
REMARK   63  A    between atoms: _146  and  _147
REMARK   64  A    between atoms: _152  and  _154
REMARK   65  A    between atoms: _154  and  _155
REMARK   66  A    between atoms: _157  and  _159
REMARK   67  A    between atoms: _159  and  _160
REMARK   68  A    between atoms: _159  and  _162
REMARK   69  A    between atoms: _162  and  _163
REMARK   70  A    between atoms: _166  and  _168
REMARK   71  A    between atoms: _168  and  _169
REMARK   72  A    between atoms: _168  and  _171
REMARK   73  A    between atoms: _171  and  _172
REMARK   74  A    between atoms: _178  and  _180
REMARK   75  A    between atoms: _180  and  _181
REMARK   76  A    between atoms: _180  and  _183
REMARK   77  A    between atoms: _183  and  _184
REMARK   78  A    between atoms: _187  and  _189
REMARK   79  A    between atoms: _189  and  _190
REMARK   80  A    between atoms: _189  and  _192
REMARK   81  A    between atoms: _192  and  _193
REMARK   82  A    between atoms: _199  and  _201
REMARK   83  A    between atoms: _201  and  _202
REMARK   84  A    between atoms: _201  and  _204
REMARK   85  A    between atoms: _204  and  _205
REMARK   86  A    between atoms: _211  and  _213
REMARK   87  A    between atoms: _213  and  _214
REMARK   88  A    between atoms: _213  and  _216
REMARK   89  A    between atoms: _216  and  _217
REMARK   90  A    between atoms: _220  and  _222
REMARK   91  A    between atoms: _222  and  _223
REMARK   92  A    between atoms: _222  and  _225
REMARK   93  A    between atoms: _225  and  _226
REMARK   94  A    between atoms: _229  and  _231
REMARK   95  A    between atoms: _231  and  _232
REMARK   96  A    between atoms: _231  and  _234
REMARK   97  A    between atoms: _234  and  _235
REMARK   98  A    between atoms: _235  and  _236
REMARK   99  A    between atoms: _236  and  _237
REMARK  100  A    between atoms: _246  and  _248
REMARK  101  A    between atoms: _248  and  _249
REMARK  102  A    between atoms: _248  and  _251
REMARK  103  A    between atoms: _251  and  _252
REMARK  104  A    between atoms: _255  and  _257
REMARK  105  A    between atoms: _257  and  _258
REMARK  106  A    between atoms: _257  and  _260
REMARK  107  A    between atoms: _260  and  _261
REMARK  108  A    between atoms: _263  and  _265
REMARK  109  A    between atoms: _265  and  _266
REMARK  110  A    between atoms: _265  and  _268
REMARK  111  A    between atoms: _268  and  _269
REMARK  112  A    between atoms: _269  and  _270
REMARK  113  A    between atoms: _275  and  _277
REMARK  114  A    between atoms: _277  and  _278
REMARK  115  A    between atoms: _277  and  _280
REMARK  116  A    between atoms: _280  and  _281
REMARK  117  A    between atoms: _283  and  _285
REMARK  118  A    between atoms: _285  and  _286
REMARK  119  A    between atoms: _288  and  _290
REMARK  120  A    between atoms: _290  and  _291
REMARK  121  A    between atoms: _290  and  _293
REMARK  122  A    between atoms: _293  and  _294
REMARK  123  A    between atoms: _299  and  _301
REMARK  124  A    between atoms: _301  and  _302
REMARK  125  A    between atoms: _304  and  _306
REMARK  126  A    between atoms: _306  and  _307
REMARK  127  A    between atoms: _306  and  _309
REMARK  128  A    between atoms: _309  and  _310
REMARK  129  A    between atoms: _315  and  _316
REMARK  130  A    between atoms: _318  and  _320
REMARK  131  A    between atoms: _320  and  _321
REMARK  132  A    between atoms: _320  and  _323
REMARK  133  A    between atoms: _323  and  _324
REMARK  134  A    between atoms: _330  and  _332
REMARK  135  A    between atoms: _332  and  _333
REMARK  136  A    between atoms: _332  and  _335
REMARK  137  A    between atoms: _335  and  _336
REMARK  138  A    between atoms: _339  and  _341
REMARK  139  A    between atoms: _341  and  _342
REMARK  140  A    between atoms: _341  and  _344
REMARK  141  A    between atoms: _344  and  _345
REMARK  142  A    between atoms: _345  and  _346
REMARK  143  A    between atoms: _349  and  _351
REMARK  144  A    between atoms: _351  and  _352
REMARK  145  A    between atoms: _351  and  _354
REMARK  146  A    between atoms: _354  and  _355
REMARK  147  A    between atoms: _358  and  _360
REMARK  148  A    between atoms: _360  and  _361
REMARK  149  A    between atoms: _360  and  _363
REMARK  150  A    between atoms: _363  and  _364
REMARK  151  A    between atoms: _367  and  _369
REMARK  152  A    between atoms: _369  and  _370
REMARK  153  A    between atoms: _372  and  _374
REMARK  154  A    between atoms: _374  and  _375
REMARK  155  A    between atoms: _374  and  _377
REMARK  156  A    between atoms: _380  and  _382
REMARK  157  A    between atoms: _382  and  _383
REMARK  158  A    between atoms: _382  and  _385
REMARK  159  A    between atoms: _385  and  _386
REMARK  160  A    between atoms: _388  and  _390
REMARK  161  A    between atoms: _390  and  _391
REMARK  162  A    between atoms: _390  and  _393
REMARK  163  A    between atoms: _393  and  _394
REMARK  164  A    between atoms: _394  and  _395
REMARK  165  A    between atoms: _397  and  _399
REMARK  166  A    between atoms: _399  and  _400
REMARK  167  A    between atoms: _399  and  _402
REMARK  168  A    between atoms: _402  and  _403
REMARK  169  A    between atoms: _408  and  _409
REMARK  170  A    between atoms: _411  and  _413
REMARK  171  A    between atoms: _413  and  _414
REMARK  172  A    between atoms: _413  and  _416
REMARK  173  A    between atoms: _416  and  _417
REMARK  174  A    between atoms: _420  and  _422
REMARK  175  A    between atoms: _422  and  _423
REMARK  176  A    between atoms: _422  and  _425
REMARK  177  A    between atoms: _425  and  _426
REMARK  178  A    between atoms: _428  and  _430
REMARK  179  A    between atoms: _430  and  _431
REMARK  180  A    between atoms: _430  and  _433
REMARK  181  A    between atoms: _433  and  _434
REMARK  182  A    between atoms: _437  and  _439
REMARK  183  A    between atoms: _439  and  _440
REMARK  184  A    between atoms: _439  and  _442
REMARK  185  A    between atoms: _442  and  _443
REMARK  186  A    between atoms: _448  and  _449
REMARK  187  A    between atoms: _451  and  _453
REMARK  188  A    between atoms: _453  and  _454
REMARK  189  A    between atoms: _453  and  _456
REMARK  190  A    between atoms: _456  and  _457
REMARK  191  A    between atoms: _459  and  _461
REMARK  192  A    between atoms: _461  and  _462
REMARK  193  A    between atoms: _461  and  _464
REMARK  194  A    between atoms: _464  and  _465
REMARK  195  A    between atoms: _471  and  _473
REMARK  196  A    between atoms: _473  and  _474
REMARK  197  A    between atoms: _473  and  _476
REMARK  198  A    between atoms: _476  and  _477
REMARK  199  A    between atoms: _477  and  _478
REMARK  200  A    between atoms: _478  and  _479
REMARK  201  A    between atoms: _488  and  _490
REMARK  202  A    between atoms: _490  and  _491
REMARK  203  A    between atoms: _490  and  _493
REMARK  204  A    between atoms: _496  and  _498
REMARK  205  A    between atoms: _498  and  _499
REMARK  206  A    between atoms: _501  and  _503
REMARK  207  A    between atoms: _503  and  _504
REMARK  208  A    between atoms: _503  and  _506
REMARK  209  A    between atoms: _506  and  _507
REMARK  210  A    between atoms: _510  and  _512
REMARK  211  A    between atoms: _512  and  _513
REMARK  212  A    between atoms: _512  and  _515
REMARK  213  A    between atoms: _515  and  _516
REMARK  214  A    between atoms: _516  and  _517
REMARK  215  A    between atoms: _519  and  _521
REMARK  216  A    between atoms: _521  and  _522
REMARK  217  A    between atoms: _521  and  _524
REMARK  218  A    between atoms: _524  and  _525
REMARK  219  A    between atoms: _531  and  _533
REMARK  220  A    between atoms: _533  and  _534
REMARK  221  A    between atoms: _533  and  _536
REMARK  222  A    between atoms: _536  and  _537
REMARK  223  A    between atoms: _542  and  _544
REMARK  224  A    between atoms: _544  and  _545
REMARK  225  A    between atoms: _544  and  _547
REMARK  226  A    between atoms: _547  and  _548
REMARK  227  A    between atoms: _558  and  _560
REMARK  228  A    between atoms: _560  and  _561
REMARK  229  A    between atoms: _560  and  _563
REMARK  230  A    between atoms: _566  and  _568
REMARK  231  A    between atoms: _568  and  _569
REMARK  232  A    between atoms: _568  and  _571
REMARK  233  A    between atoms: _571  and  _572
REMARK  234  A    between atoms: _575  and  _577
REMARK  235  A    between atoms: _577  and  _578
REMARK  236  A    between atoms: _577  and  _580
REMARK  237  A    between atoms: _580  and  _581
REMARK  238  A    between atoms: _581  and  _582
REMARK  239  A    between atoms: _584  and  _586
REMARK  240  A    between atoms: _586  and  _587
REMARK  241  A    between atoms: _586  and  _589
REMARK  242  A    between atoms: _589  and  _590
REMARK  243  A    between atoms: _593  and  _595
REMARK  244  A    between atoms: _595  and  _596
REMARK  245  A    between atoms: _595  and  _598
REMARK  246  A    between atoms: _598  and  _599
REMARK  247  A    between atoms: _602  and  _604
REMARK  248  A    between atoms: _604  and  _605
REMARK  249  A    between atoms: _607  and  _609
REMARK  250  A    between atoms: _609  and  _610
REMARK  251  A    between atoms: _609  and  _612
REMARK  252  A    between atoms: _612  and  _613
REMARK  253  A    between atoms: _615  and  _617
REMARK  254  A    between atoms: _617  and  _618
REMARK  255  A    between atoms: _617  and  _620
REMARK  256  A    between atoms: _620  and  _621
REMARK  257  A    between atoms: _631  and  _633
REMARK  258  A    between atoms: _633  and  _634
REMARK  259  A    between atoms: _633  and  _636
REMARK  260  A    between atoms: _636  and  _637
REMARK  261  A    between atoms: _639  and  _641
REMARK  262  A    between atoms: _641  and  _642
REMARK  263  A    between atoms: _641  and  _644
REMARK  264  A    between atoms: _644  and  _645
REMARK  265  A    between atoms: _648  and  _650
REMARK  266  A    between atoms: _650  and  _651
REMARK  267  A    between atoms: _654  and  _656
REMARK  268  A    between atoms: _656  and  _657
REMARK  269  A    between atoms: _656  and  _659
REMARK  270  A    between atoms: _659  and  _660
REMARK  271  A    between atoms: _662  and  _664
REMARK  272  A    between atoms: _664  and  _665
REMARK  273  A    between atoms: _664  and  _667
REMARK  274  A    between atoms: _667  and  _668
REMARK  275  A    between atoms: _668  and  _669
REMARK  276  A    between atoms: _673  and  _674
REMARK  277  A    between atoms: _679  and  _681
REMARK  278  A    between atoms: _681  and  _682
REMARK  279  A    between atoms: _681  and  _684
REMARK  280  A    between atoms: _684  and  _685
REMARK  281  A    between atoms: _687  and  _689
REMARK  282  A    between atoms: _689  and  _690
REMARK  283  A    between atoms: _689  and  _692
REMARK  284  A    between atoms: _692  and  _693
REMARK  285  A    between atoms: _693  and  _694
REMARK  286  A    between atoms: _699  and  _701
REMARK  287  A    between atoms: _701  and  _702
REMARK  288  A    between atoms: _701  and  _704
REMARK  289  A    between atoms: _704  and  _705
REMARK  290  A    between atoms: _705  and  _706
REMARK  291  A    between atoms: _711  and  _713
REMARK  292  A    between atoms: _713  and  _714
REMARK  293  A    between atoms: _713  and  _716
REMARK  294  A    between atoms: _716  and  _717
REMARK  295  A    between atoms: _720  and  _722
REMARK  296  A    between atoms: _722  and  _723
REMARK  297  A    between atoms: _722  and  _725
REMARK  298  A    between atoms: _725  and  _726
REMARK  299  A    between atoms: _729  and  _731
REMARK  300  A    between atoms: _731  and  _732
REMARK  301  A    between atoms: _731  and  _734
REMARK  302  A    between atoms: _734  and  _735
REMARK  303  A    between atoms: _741  and  _743
REMARK  304  A    between atoms: _743  and  _744
REMARK  305  A    between atoms: _743  and  _746
REMARK  306  A    between atoms: _746  and  _747
REMARK  307  A    between atoms: _752  and  _753
REMARK  308  A    between atoms: _755  and  _757
REMARK  309  A    between atoms: _757  and  _758
REMARK  310  A    between atoms: _757  and  _760
REMARK  311  A    between atoms: _760  and  _761
REMARK  312  A    between atoms: _767  and  _769
REMARK  313  A    between atoms: _769  and  _770
REMARK  314  A    between atoms: _769  and  _772
REMARK  315  A    between atoms: _772  and  _773
REMARK  316  A    between atoms: _778  and  _780
REMARK  317  A    between atoms: _780  and  _781
REMARK  318  A    between atoms: _780  and  _783
REMARK  319  A    between atoms: _783  and  _784
REMARK  320  A    between atoms: _784  and  _785
REMARK                            x       y       z     vdW  Elec       q    Type
REMARK                         _______ _______ _______ _____ _____    ______ ____
ROOT
ATOM      1  CA  MET A   1       1.178  39.921  28.834  0.00  0.00    +0.134 C 
ENDROOT
BRANCH   1   2
ATOM      2  N   MET A   1       2.085  39.925  29.978  0.00  0.00    -0.239 NA
ATOM      3  H   MET A   1       3.101  39.761  29.829  0.00  0.00    +0.142 HD
ENDBRANCH   1   2
BRANCH   1   4
ATOM      4  C   MET A   1       1.617  39.009  27.706  0.00  0.00    +0.224 C 
ATOM      5  O   MET A   1       2.761  38.654  27.585  0.00  0.00    -0.287 OA
ENDBRANCH   1   4
BRANCH   1   6
ATOM      6  CB  MET A   1       1.071  41.367  28.260  0.00  0.00    +0.037 C 
BRANCH   6   7
ATOM      7  CG  MET A   1      -0.259  41.787  27.628  0.00  0.00    +0.059 C 
BRANCH   7   8
ATOM      8  SD  MET A   1      -0.277  43.592  27.645  0.00  0.00    -0.139 S 
ATOM      9  CE  MET A   1       1.163  43.942  26.712  0.00  0.00    +0.069 C 
ENDBRANCH   7   8
ENDBRANCH   6   7
ENDBRANCH   1   6
TORSDOF 5
REMARK  Name = ../refined-set-2016/3drf/3drf_pocket.pdb
REMARK  320 active torsions:
REMARK  status: ('A' for Active; 'I' for Inactive)
REMARK    1  A    between atoms: _1  and  _3
REMARK    2  A    between atoms: _3  and  _4
REMARK    3  A    between atoms: _3  and  _6
REMARK    4  A    between atoms: _6  and  _7
REMARK    5  A    between atoms: _12  and  _13
REMARK    6  A    between atoms: _15  and  _17
REMARK    7  A    between atoms: _17  and  _18
REMARK    8  A    between atoms: _17  and  _20
REMARK    9  A    between atoms: _20  and  _21
REMARK   10  A    between atoms: _21  and  _22
REMARK   11  A    between atoms: _27  and  _29
REMARK   12  A    between atoms: _29  and  _30
REMARK   13  A    between atoms: _29  and  _32
REMARK   14  A    between atoms: _32  and  _33
REMARK   15  A    between atoms: _35  and  _37
REMARK   16  A    between atoms: _37  and  _38
REMARK   17  A    between atoms: _37  and  _40
REMARK   18  A    between atoms: _40  and  _41
REMARK   19  A    between atoms: _44  and  _46
REMARK   20  A    between atoms: _46  and  _47
REMARK   21  A    between atoms: _46  and  _49
REMARK   22  A    between atoms: _49  and  _50
REMARK   23  A    between atoms: _52  and  _54
REMARK   24  A    between atoms: _54  and  _55
REMARK   25  A    between atoms: _54  and  _57
REMARK   26  A    between atoms: _57  and  _58
REMARK   27  A    between atoms: _60  and  _62
REMARK   28  A    between atoms: _62  and  _63
REMARK   29  A    between atoms: _65  and  _67
REMARK   30  A    between atoms: _67  and  _68
REMARK   31  A    between atoms: _67  and  _70
REMARK   32  A    between atoms: _70  and  _71
REMARK   33  A    between atoms: _73  and  _75
REMARK   34  A    between atoms: _75  and  _76
REMARK   35  A    between atoms: _75  and  _78
REMARK   36  A    between atoms: _78  and  _79
REMARK   37  A    between atoms: _84  and  _86
REMARK   38  A    between atoms: _86  and  _87
REMARK   39  A    between atoms: _86  and  _89
REMARK   40  A    between atoms: _89  and  _90
REMARK   41  A    between atoms: _93  and  _95
REMARK   42  A    between atoms: _95  and  _96
REMARK   43  A    between atoms: _99  and  _101
REMARK   44  A    between atoms: _101  and  _102
REMARK   45  A    between atoms: _101  and  _104
REMARK   46  A    between atoms: _104  and  _105
REMARK   47  A    between atoms: _108  and  _110
REMARK   48  A    between atoms: _110  and  _111
REMARK   49  A    between atoms: _110  and  _113
REMARK   50  A    between atoms: _113  and  _114
REMARK   51  A    between atoms: _120  and  _122
REMARK   52  A    between atoms: _122  and  _123
REMARK   53  A    between atoms: _126  and  _128
REMARK   54  A    between atoms: _128  and  _129
REMARK   55  A    between atoms: _128  and  _131
REMARK   56  A    between atoms: _131  and  _132
REMARK   57  A    between atoms: _135  and  _137
REMARK   58  A    between atoms: _137  and  _138
REMARK   59  A    between atoms: _140  and  _142
REMARK   60  A    between atoms: _142  and  _143
REMARK   61  A    between atoms: _142  and  _145
REMARK   62  A    between atoms: _145  and  _146
REMARK   63  A    between atoms: _146  and  _147
REMARK   64  A    between atoms: _152  and  _154
REMARK   65  A    between atoms: _154  and  _155
REMARK   66  A    between atoms: _157  and  _159
REMARK   67  A    between atoms: _159  and  _160
REMARK   68  A    between atoms: _159  and  _162
REMARK   69  A    between atoms: _162  and  _163
REMARK   70  A    between atoms: _166  and  _168
REMARK   71  A    between atoms: _168  and  _169
REMARK   72  A    between atoms: _168  and  _171
REMARK   73  A    between atoms: _171  and  _172
REMARK   74  A    between atoms: _178  and  _180
REMARK   75  A    between atoms: _180  and  _181
REMARK   76  A    between atoms: _180  and  _183
REMARK   77  A    between atoms: _183  and  _184
REMARK   78  A    between atoms: _187  and  _189
REMARK   79  A    between atoms: _189  and  _190
REMARK   80  A    between atoms: _189  and  _192
REMARK   81  A    between atoms: _192  and  _193
REMARK   82  A    between atoms: _199  and  _201
REMARK   83  A    between atoms: _201  and  _202
REMARK   84  A    between atoms: _201  and  _204
REMARK   85  A    between atoms: _204  and  _205
REMARK   86  A    between atoms: _211  and  _213
REMARK   87  A    between atoms: _213  and  _214
REMARK   88  A    between atoms: _213  and  _216
REMARK   89  A    between atoms: _216  and  _217
REMARK   90  A    between atoms: _220  and  _222
REMARK   91  A    between atoms: _222  and  _223
REMARK   92  A    between atoms: _222  and  _225
REMARK   93  A    between atoms: _225  and  _226
REMARK   94  A    between atoms: _229  and  _231
REMARK   95  A    between atoms: _231  and  _232
REMARK   96  A    between atoms: _231  and  _234
REMARK   97  A    between atoms: _234  and  _235
REMARK   98  A    between atoms: _235  and  _236
REMARK   99  A    between atoms: _236  and  _237
REMARK  100  A    between atoms: _246  and  _248
REMARK  101  A    between atoms: _248  and  _249
REMARK  102  A    between atoms: _248  and  _251
REMARK  103  A    between atoms: _251  and  _252
REMARK  104  A    between atoms: _255  and  _257
REMARK  105  A    between atoms: _257  and  _258
REMARK  106  A    between atoms: _257  and  _260
REMARK  107  A    between atoms: _260  and  _261
REMARK  108  A    between atoms: _263  and  _265
REMARK  109  A    between atoms: _265  and  _266
REMARK  110  A    between atoms: _265  and  _268
REMARK  111  A    between atoms: _268  and  _269
REMARK  112  A    between atoms: _269  and  _270
REMARK  113  A    between atoms: _275  and  _277
REMARK  114  A    between atoms: _277  and  _278
REMARK  115  A    between atoms: _277  and  _280
REMARK  116  A    between atoms: _280  and  _281
REMARK  117  A    between atoms: _283  and  _285
REMARK  118  A    between atoms: _285  and  _286
REMARK  119  A    between atoms: _288  and  _290
REMARK  120  A    between atoms: _290  and  _291
REMARK  121  A    between atoms: _290  and  _293
REMARK  122  A    between atoms: _293  and  _294
REMARK  123  A    between atoms: _299  and  _301
REMARK  124  A    between atoms: _301  and  _302
REMARK  125  A    between atoms: _304  and  _306
REMARK  126  A    between atoms: _306  and  _307
REMARK  127  A    between atoms: _306  and  _309
REMARK  128  A    between atoms: _309  and  _310
REMARK  129  A    between atoms: _315  and  _316
REMARK  130  A    between atoms: _318  and  _320
REMARK  131  A    between atoms: _320  and  _321
REMARK  132  A    between atoms: _320  and  _323
REMARK  133  A    between atoms: _323  and  _324
REMARK  134  A    between atoms: _330  and  _332
REMARK  135  A    between atoms: _332  and  _333
REMARK  136  A    between atoms: _332  and  _335
REMARK  137  A    between atoms: _335  and  _336
REMARK  138  A    between atoms: _339  and  _341
REMARK  139  A    between atoms: _341  and  _342
REMARK  140  A    between atoms: _341  and  _344
REMARK  141  A    between atoms: _344  and  _345
REMARK  142  A    between atoms: _345  and  _346
REMARK  143  A    between atoms: _349  and  _351
REMARK  144  A    between atoms: _351  and  _352
REMARK  145  A    between atoms: _351  and  _354
REMARK  146  A    between atoms: _354  and  _355
REMARK  147  A    between atoms: _358  and  _360
REMARK  148  A    between atoms: _360  and  _361
REMARK  149  A    between atoms: _360  and  _363
REMARK  150  A    between atoms: _363  and  _364
REMARK  151  A    between atoms: _367  and  _369
REMARK  152  A    between atoms: _369  and  _370
REMARK  153  A    between atoms: _372  and  _374
REMARK  154  A    between atoms: _374  and  _375
REMARK  155  A    between atoms: _374  and  _377
REMARK  156  A    between atoms: _380  and  _382
REMARK  157  A    between atoms: _382  and  _383
REMARK  158  A    between atoms: _382  and  _385
REMARK  159  A    between atoms: _385  and  _386
REMARK  160  A    between atoms: _388  and  _390
REMARK  161  A    between atoms: _390  and  _391
REMARK  162  A    between atoms: _390  and  _393
REMARK  163  A    between atoms: _393  and  _394
REMARK  164  A    between atoms: _394  and  _395
REMARK  165  A    between atoms: _397  and  _399
REMARK  166  A    between atoms: _399  and  _400
REMARK  167  A    between atoms: _399  and  _402
REMARK  168  A    between atoms: _402  and  _403
REMARK  169  A    between atoms: _408  and  _409
REMARK  170  A    between atoms: _411  and  _413
REMARK  171  A    between atoms: _413  and  _414
REMARK  172  A    between atoms: _413  and  _416
REMARK  173  A    between atoms: _416  and  _417
REMARK  174  A    between atoms: _420  and  _422
REMARK  175  A    between atoms: _422  and  _423
REMARK  176  A    between atoms: _422  and  _425
REMARK  177  A    between atoms: _425  and  _426
REMARK  178  A    between atoms: _428  and  _430
REMARK  179  A    between atoms: _430  and  _431
REMARK  180  A    between atoms: _430  and  _433
REMARK  181  A    between atoms: _433  and  _434
REMARK  182  A    between atoms: _437  and  _439
REMARK  183  A    between atoms: _439  and  _440
REMARK  184  A    between atoms: _439  and  _442
REMARK  185  A    between atoms: _442  and  _443
REMARK  186  A    between atoms: _448  and  _449
REMARK  187  A    between atoms: _451  and  _453
REMARK  188  A    between atoms: _453  and  _454
REMARK  189  A    between atoms: _453  and  _456
REMARK  190  A    between atoms: _456  and  _457
REMARK  191  A    between atoms: _459  and  _461
REMARK  192  A    between atoms: _461  and  _462
REMARK  193  A    between atoms: _461  and  _464
REMARK  194  A    between atoms: _464  and  _465
REMARK  195  A    between atoms: _471  and  _473
REMARK  196  A    between atoms: _473  and  _474
REMARK  197  A    between atoms: _473  and  _476
REMARK  198  A    between atoms: _476  and  _477
REMARK  199  A    between atoms: _477  and  _478
REMARK  200  A    between atoms: _478  and  _479
REMARK  201  A    between atoms: _488  and  _490
REMARK  202  A    between atoms: _490  and  _491
REMARK  203  A    between atoms: _490  and  _493
REMARK  204  A    between atoms: _496  and  _498
REMARK  205  A    between atoms: _498  and  _499
REMARK  206  A    between atoms: _501  and  _503
REMARK  207  A    between atoms: _503  and  _504
REMARK  208  A    between atoms: _503  and  _506
REMARK  209  A    between atoms: _506  and  _507
REMARK  210  A    between atoms: _510  and  _512
REMARK  211  A    between atoms: _512  and  _513
REMARK  212  A    between atoms: _512  and  _515
REMARK  213  A    between atoms: _515  and  _516
REMARK  214  A    between atoms: _516  and  _517
REMARK  215  A    between atoms: _519  and  _521
REMARK  216  A    between atoms: _521  and  _522
REMARK  217  A    between atoms: _521  and  _524
REMARK  218  A    between atoms: _524  and  _525
REMARK  219  A    between atoms: _531  and  _533
REMARK  220  A    between atoms: _533  and  _534
REMARK  221  A    between atoms: _533  and  _536
REMARK  222  A    between atoms: _536  and  _537
REMARK  223  A    between atoms: _542  and  _544
REMARK  224  A    between atoms: _544  and  _545
REMARK  225  A    between atoms: _544  and  _547
REMARK  226  A    between atoms: _547  and  _548
REMARK  227  A    between atoms: _558  and  _560
REMARK  228  A    between atoms: _560  and  _561
REMARK  229  A    between atoms: _560  and  _563
REMARK  230  A    between atoms: _566  and  _568
REMARK  231  A    between atoms: _568  and  _569
REMARK  232  A    between atoms: _568  and  _571
REMARK  233  A    between atoms: _571  and  _572
REMARK  234  A    between atoms: _575  and  _577
REMARK  235  A    between atoms: _577  and  _578
REMARK  236  A    between atoms: _577  and  _580
REMARK  237  A    between atoms: _580  and  _581
REMARK  238  A    between atoms: _581  and  _582
REMARK  239  A    between atoms: _584  and  _586
REMARK  240  A    between atoms: _586  and  _587
REMARK  241  A    between atoms: _586  and  _589
REMARK  242  A    between atoms: _589  and  _590
REMARK  243  A    between atoms: _593  and  _595
REMARK  244  A    between atoms: _595  and  _596
REMARK  245  A    between atoms: _595  and  _598
REMARK  246  A    between atoms: _598  and  _599
REMARK  247  A    between atoms: _602  and  _604
REMARK  248  A    between atoms: _604  and  _605
REMARK  249  A    between atoms: _607  and  _609
REMARK  250  A    between atoms: _609  and  _610
REMARK  251  A    between atoms: _609  and  _612
REMARK  252  A    between atoms: _612  and  _613
REMARK  253  A    between atoms: _615  and  _617
REMARK  254  A    between atoms: _617  and  _618
REMARK  255  A    between atoms: _617  and  _620
REMARK  256  A    between atoms: _620  and  _621
REMARK  257  A    between atoms: _631  and  _633
REMARK  258  A    between atoms: _633  and  _634
REMARK  259  A    between atoms: _633  and  _636
REMARK  260  A    between atoms: _636  and  _637
REMARK  261  A    between atoms: _639  and  _641
REMARK  262  A    between atoms: _641  and  _642
REMARK  263  A    between atoms: _641  and  _644
REMARK  264  A    between atoms: _644  and  _645
REMARK  265  A    between atoms: _648  and  _650
REMARK  266  A    between atoms: _650  and  _651
REMARK  267  A    between atoms: _654  and  _656
REMARK  268  A    between atoms: _656  and  _657
REMARK  269  A    between atoms: _656  and  _659
REMARK  270  A    between atoms: _659  and  _660
REMARK  271  A    between atoms: _662  and  _664
REMARK  272  A    between atoms: _664  and  _665
REMARK  273  A    between atoms: _664  and  _667
REMARK  274  A    between atoms: _667  and  _668
REMARK  275  A    between atoms: _668  and  _669
REMARK  276  A    between atoms: _673  and  _674
REMARK  277  A    between atoms: _679  and  _681
REMARK  278  A    between atoms: _681  and  _682
REMARK  279  A    between atoms: _681  and  _684
REMARK  280  A    between atoms: _684  and  _685
REMARK  281  A    between atoms: _687  and  _689
REMARK  282  A    between atoms: _689  and  _690
REMARK  283  A    between atoms: _689  and  _692
REMARK  284  A    between atoms: _692  and  _693
REMARK  285  A    between atoms: _693  and  _694
REMARK  286  A    between atoms: _699  and  _701
REMARK  287  A    between atoms: _701  and  _702
REMARK  288  A    between atoms: _701  and  _704
REMARK  289  A    between atoms: _704  and  _705
REMARK  290  A    between atoms: _705  and  _706
REMARK  291  A    between atoms: _711  and  _713
REMARK  292  A    between atoms: _713  and  _714
REMARK  293  A    between atoms: _713  and  _716
REMARK  294  A    between atoms: _716  and  _717
REMARK  295  A    between atoms: _720  and  _722
REMARK  296  A    between atoms: _722  and  _723
REMARK  297  A    between atoms: _722  and  _725
REMARK  298  A    between atoms: _725  and  _726
REMARK  299  A    between atoms: _729  and  _731
REMARK  300  A    between atoms: _731  and  _732
REMARK  301  A    between atoms: _731  and  _734
REMARK  302  A    between atoms: _734  and  _735
REMARK  303  A    between atoms: _741  and  _743
REMARK  304  A    between atoms: _743  and  _744
REMARK  305  A    between atoms: _743  and  _746
REMARK  306  A    between atoms: _746  and  _747
REMARK  307  A    between atoms: _752  and  _753
REMARK  308  A    between atoms: _755  and  _757
REMARK  309  A    between atoms: _757  and  _758
REMARK  310  A    between atoms: _757  and  _760
REMARK  311  A    between atoms: _760  and  _761
REMARK  312  A    between atoms: _767  and  _769
REMARK  313  A    between atoms: _769  and  _770
REMARK  314  A    between atoms: _769  and  _772
REMARK  315  A    between atoms: _772  and  _773
REMARK  316  A    between atoms: _778  and  _780
REMARK  317  A    between atoms: _780  and  _781
REMARK  318  A    between atoms: _780  and  _783
REMARK  319  A    between atoms: _783  and  _784
REMARK  320  A    between atoms: _784  and  _785
REMARK                            x       y       z     vdW  Elec       q    Type
REMARK                         _______ _______ _______ _____ _____    ______ ____
ROOT
ATOM      1  O   HOH     1      19.974  46.129  31.905  0.00  0.00    +0.000 OA
ENDROOT
TORSDOF 0
REMARK  Name = ../refined-set-2016/3drf/3drf_pocket.pdb
REMARK  320 active torsions:
REMARK  status: ('A' for Active; 'I' for Inactive)
REMARK    1  A    between atoms: _1  and  _3
REMARK    2  A    between atoms: _3  and  _4
REMARK    3  A    between atoms: _3  and  _6
REMARK    4  A    between atoms: _6  and  _7
REMARK    5  A    between atoms: _12  and  _13
REMARK    6  A    between atoms: _15  and  _17
REMARK    7  A    between atoms: _17  and  _18
REMARK    8  A    between atoms: _17  and  _20
REMARK    9  A    between atoms: _20  and  _21
REMARK   10  A    between atoms: _21  and  _22
REMARK   11  A    between atoms: _27  and  _29
REMARK   12  A    between atoms: _29  and  _30
REMARK   13  A    between atoms: _29  and  _32
REMARK   14  A    between atoms: _32  and  _33
REMARK   15  A    between atoms: _35  and  _37
REMARK   16  A    between atoms: _37  and  _38
REMARK   17  A    between atoms: _37  and  _40
REMARK   18  A    between atoms: _40  and  _41
REMARK   19  A    between atoms: _44  and  _46
REMARK   20  A    between atoms: _46  and  _47
REMARK   21  A    between atoms: _46  and  _49
REMARK   22  A    between atoms: _49  and  _50
REMARK   23  A    between atoms: _52  and  _54
REMARK   24  A    between atoms: _54  and  _55
REMARK   25  A    between atoms: _54  and  _57
REMARK   26  A    between atoms: _57  and  _58
REMARK   27  A    between atoms: _60  and  _62
REMARK   28  A    between atoms: _62  and  _63
REMARK   29  A    between atoms: _65  and  _67
REMARK   30  A    between atoms: _67  and  _68
REMARK   31  A    between atoms: _67  and  _70
REMARK   32  A    between atoms: _70  and  _71
REMARK   33  A    between atoms: _73  and  _75
REMARK   34  A    between atoms: _75  and  _76
REMARK   35  A    between atoms: _75  and  _78
REMARK   36  A    between atoms: _78  and  _79
REMARK   37  A    between atoms: _84  and  _86
REMARK   38  A    between atoms: _86  and  _87
REMARK   39  A    between atoms: _86  and  _89
REMARK   40  A    between atoms: _89  and  _90
REMARK   41  A    between atoms: _93  and  _95
REMARK   42  A    between atoms: _95  and  _96
REMARK   43  A    between atoms: _99  and  _101
REMARK   44  A    between atoms: _101  and  _102
REMARK   45  A    between atoms: _101  and  _104
REMARK   46  A    between atoms: _104  and  _105
REMARK   47  A    between atoms: _108  and  _110
REMARK   48  A    between atoms: _110  and  _111
REMARK   49  A    between atoms: _110  and  _113
REMARK   50  A    between atoms: _113  and  _114
REMARK   51  A    between atoms: _120  and  _122
REMARK   52  A    between atoms: _122  and  _123
REMARK   53  A    between atoms: _126  and  _128
REMARK   54  A    between atoms: _128  and  _129
REMARK   55  A    between atoms: _128  and  _131
REMARK   56  A    between atoms: _131  and  _132
REMARK   57  A    between atoms: _135  and  _137
REMARK   58  A    between atoms: _137  and  _138
REMARK   59  A    between atoms: _140  and  _142
REMARK   60  A    between atoms: _142  and  _143
REMARK   61  A    between atoms: _142  and  _145
REMARK   62  A    between atoms: _145  and  _146
REMARK   63  A    between atoms: _146  and  _147
REMARK   64  A    between atoms: _152  and  _154
REMARK   65  A    between atoms: _154  and  _155
REMARK   66  A    between atoms: _157  and  _159
REMARK   67  A    between atoms: _159  and  _160
REMARK   68  A    between atoms: _159  and  _162
REMARK   69  A    between atoms: _162  and  _163
REMARK   70  A    between atoms: _166  and  _168
REMARK   71  A    between atoms: _168  and  _169
REMARK   72  A    between atoms: _168  and  _171
REMARK   73  A    between atoms: _171  and  _172
REMARK   74  A    between atoms: _178  and  _180
REMARK   75  A    between atoms: _180  and  _181
REMARK   76  A    between atoms: _180  and  _183
REMARK   77  A    between atoms: _183  and  _184
REMARK   78  A    between atoms: _187  and  _189
REMARK   79  A    between atoms: _189  and  _190
REMARK   80  A    between atoms: _189  and  _192
REMARK   81  A    between atoms: _192  and  _193
REMARK   82  A    between atoms: _199  and  _201
REMARK   83  A    between atoms: _201  and  _202
REMARK   84  A    between atoms: _201  and  _204
REMARK   85  A    between atoms: _204  and  _205
REMARK   86  A    between atoms: _211  and  _213
REMARK   87  A    between atoms: _213  and  _214
REMARK   88  A    between atoms: _213  and  _216
REMARK   89  A    between atoms: _216  and  _217
REMARK   90  A    between atoms: _220  and  _222
REMARK   91  A    between atoms: _222  and  _223
REMARK   92  A    between atoms: _222  and  _225
REMARK   93  A    between atoms: _225  and  _226
REMARK   94  A    between atoms: _229  and  _231
REMARK   95  A    between atoms: _231  and  _232
REMARK   96  A    between atoms: _231  and  _234
REMARK   97  A    between atoms: _234  and  _235
REMARK   98  A    between atoms: _235  and  _236
REMARK   99  A    between atoms: _236  and  _237
REMARK  100  A    between atoms: _246  and  _248
REMARK  101  A    between atoms: _248  and  _249
REMARK  102  A    between atoms: _248  and  _251
REMARK  103  A    between atoms: _251  and  _252
REMARK  104  A    between atoms: _255  and  _257
REMARK  105  A    between atoms: _257  and  _258
REMARK  106  A    between atoms: _257  and  _260
REMARK  107  A    between atoms: _260  and  _261
REMARK  108  A    between atoms: _263  and  _265
REMARK  109  A    between atoms: _265  and  _266
REMARK  110  A    between atoms: _265  and  _268
REMARK  111  A    between atoms: _268  and  _269
REMARK  112  A    between atoms: _269  and  _270
REMARK  113  A    between atoms: _275  and  _277
REMARK  114  A    between atoms: _277  and  _278
REMARK  115  A    between atoms: _277  and  _280
REMARK  116  A    between atoms: _280  and  _281
REMARK  117  A    between atoms: _283  and  _285
REMARK  118  A    between atoms: _285  and  _286
REMARK  119  A    between atoms: _288  and  _290
REMARK  120  A    between atoms: _290  and  _291
REMARK  121  A    between atoms: _290  and  _293
REMARK  122  A    between atoms: _293  and  _294
REMARK  123  A    between atoms: _299  and  _301
REMARK  124  A    between atoms: _301  and  _302
REMARK  125  A    between atoms: _304  and  _306
REMARK  126  A    between atoms: _306  and  _307
REMARK  127  A    between atoms: _306  and  _309
REMARK  128  A    between atoms: _309  and  _310
REMARK  129  A    between atoms: _315  and  _316
REMARK  130  A    between atoms: _318  and  _320
REMARK  131  A    between atoms: _320  and  _321
REMARK  132  A    between atoms: _320  and  _323
REMARK  133  A    between atoms: _323  and  _324
REMARK  134  A    between atoms: _330  and  _332
REMARK  135  A    between atoms: _332  and  _333
REMARK  136  A    between atoms: _332  and  _335
REMARK  137  A    between atoms: _335  and  _336
REMARK  138  A    between atoms: _339  and  _341
REMARK  139  A    between atoms: _341  and  _342
REMARK  140  A    between atoms: _341  and  _344
REMARK  141  A    between atoms: _344  and  _345
REMARK  142  A    between atoms: _345  and  _346
REMARK  143  A    between atoms: _349  and  _351
REMARK  144  A    between atoms: _351  and  _352
REMARK  145  A    between atoms: _351  and  _354
REMARK  146  A    between atoms: _354  and  _355
REMARK  147  A    between atoms: _358  and  _360
REMARK  148  A    between atoms: _360  and  _361
REMARK  149  A    between atoms: _360  and  _363
REMARK  150  A    between atoms: _363  and  _364
REMARK  151  A    between atoms: _367  and  _369
REMARK  152  A    between atoms: _369  and  _370
REMARK  153  A    between atoms: _372  and  _374
REMARK  154  A    between atoms: _374  and  _375
REMARK  155  A    between atoms: _374  and  _377
REMARK  156  A    between atoms: _380  and  _382
REMARK  157  A    between atoms: _382  and  _383
REMARK  158  A    between atoms: _382  and  _385
REMARK  159  A    between atoms: _385  and  _386
REMARK  160  A    between atoms: _388  and  _390
REMARK  161  A    between atoms: _390  and  _391
REMARK  162  A    between atoms: _390  and  _393
REMARK  163  A    between atoms: _393  and  _394
REMARK  164  A    between atoms: _394  and  _395
REMARK  165  A    between atoms: _397  and  _399
REMARK  166  A    between atoms: _399  and  _400
REMARK  167  A    between atoms: _399  and  _402
REMARK  168  A    between atoms: _402  and  _403
REMARK  169  A    between atoms: _408  and  _409
REMARK  170  A    between atoms: _411  and  _413
REMARK  171  A    between atoms: _413  and  _414
REMARK  172  A    between atoms: _413  and  _416
REMARK  173  A    between atoms: _416  and  _417
REMARK  174  A    between atoms: _420  and  _422
REMARK  175  A    between atoms: _422  and  _423
REMARK  176  A    between atoms: _422  and  _425
REMARK  177  A    between atoms: _425  and  _426
REMARK  178  A    between atoms: _428  and  _430
REMARK  179  A    between atoms: _430  and  _431
REMARK  180  A    between atoms: _430  and  _433
REMARK  181  A    between atoms: _433  and  _434
REMARK  182  A    between atoms: _437  and  _439
REMARK  183  A    between atoms: _439  and  _440
REMARK  184  A    between atoms: _439  and  _442
REMARK  185  A    between atoms: _442  and  _443
REMARK  186  A    between atoms: _448  and  _449
REMARK  187  A    between atoms: _451  and  _453
REMARK  188  A    between atoms: _453  and  _454
REMARK  189  A    between atoms: _453  and  _456
REMARK  190  A    between atoms: _456  and  _457
REMARK  191  A    between atoms: _459  and  _461
REMARK  192  A    between atoms: _461  and  _462
REMARK  193  A    between atoms: _461  and  _464
REMARK  194  A    between atoms: _464  and  _465
REMARK  195  A    between atoms: _471  and  _473
REMARK  196  A    between atoms: _473  and  _474
REMARK  197  A    between atoms: _473  and  _476
REMARK  198  A    between atoms: _476  and  _477
REMARK  199  A    between atoms: _477  and  _478
REMARK  200  A    between atoms: _478  and  _479
REMARK  201  A    between atoms: _488  and  _490
REMARK  202  A    between atoms: _490  and  _491
REMARK  203  A    between atoms: _490  and  _493
REMARK  204  A    between atoms: _496  and  _498
REMARK  205  A    between atoms: _498  and  _499
REMARK  206  A    between atoms: _501  and  _503
REMARK  207  A    between atoms: _503  and  _504
REMARK  208  A    between atoms: _503  and  _506
REMARK  209  A    between atoms: _506  and  _507
REMARK  210  A    between atoms: _510  and  _512
REMARK  211  A    between atoms: _512  and  _513
REMARK  212  A    between atoms: _512  and  _515
REMARK  213  A    between atoms: _515  and  _516
REMARK  214  A    between atoms: _516  and  _517
REMARK  215  A    between atoms: _519  and  _521
REMARK  216  A    between atoms: _521  and  _522
REMARK  217  A    between atoms: _521  and  _524
REMARK  218  A    between atoms: _524  and  _525
REMARK  219  A    between atoms: _531  and  _533
REMARK  220  A    between atoms: _533  and  _534
REMARK  221  A    between atoms: _533  and  _536
REMARK  222  A    between atoms: _536  and  _537
REMARK  223  A    between atoms: _542  and  _544
REMARK  224  A    between atoms: _544  and  _545
REMARK  225  A    between atoms: _544  and  _547
REMARK  226  A    between atoms: _547  and  _548
REMARK  227  A    between atoms: _558  and  _560
REMARK  228  A    between atoms: _560  and  _561
REMARK  229  A    between atoms: _560  and  _563
REMARK  230  A    between atoms: _566  and  _568
REMARK  231  A    between atoms: _568  and  _569
REMARK  232  A    between atoms: _568  and  _571
REMARK  233  A    between atoms: _571  and  _572
REMARK  234  A    between atoms: _575  and  _577
REMARK  235  A    between atoms: _577  and  _578
REMARK  236  A    between atoms: _577  and  _580
REMARK  237  A    between atoms: _580  and  _581
REMARK  238  A    between atoms: _581  and  _582
REMARK  239  A    between atoms: _584  and  _586
REMARK  240  A    between atoms: _586  and  _587
REMARK  241  A    between atoms: _586  and  _589
REMARK  242  A    between atoms: _589  and  _590
REMARK  243  A    between atoms: _593  and  _595
REMARK  244  A    between atoms: _595  and  _596
REMARK  245  A    between atoms: _595  and  _598
REMARK  246  A    between atoms: _598  and  _599
REMARK  247  A    between atoms: _602  and  _604
REMARK  248  A    between atoms: _604  and  _605
REMARK  249  A    between atoms: _607  and  _609
REMARK  250  A    between atoms: _609  and  _610
REMARK  251  A    between atoms: _609  and  _612
REMARK  252  A    between atoms: _612  and  _613
REMARK  253  A    between atoms: _615  and  _617
REMARK  254  A    between atoms: _617  and  _618
REMARK  255  A    between atoms: _617  and  _620
REMARK  256  A    between atoms: _620  and  _621
REMARK  257  A    between atoms: _631  and  _633
REMARK  258  A    between atoms: _633  and  _634
REMARK  259  A    between atoms: _633  and  _636
REMARK  260  A    between atoms: _636  and  _637
REMARK  261  A    between atoms: _639  and  _641
REMARK  262  A    between atoms: _641  and  _642
REMARK  263  A    between atoms: _641  and  _644
REMARK  264  A    between atoms: _644  and  _645
REMARK  265  A    between atoms: _648  and  _650
REMARK  266  A    between atoms: _650  and  _651
REMARK  267  A    between atoms: _654  and  _656
REMARK  268  A    between atoms: _656  and  _657
REMARK  269  A    between atoms: _656  and  _659
REMARK  270  A    between atoms: _659  and  _660
REMARK  271  A    between atoms: _662  and  _664
REMARK  272  A    between atoms: _664  and  _665
REMARK  273  A    between atoms: _664  and  _667
REMARK  274  A    between atoms: _667  and  _668
REMARK  275  A    between atoms: _668  and  _669
REMARK  276  A    between atoms: _673  and  _674
REMARK  277  A    between atoms: _679  and  _681
REMARK  278  A    between atoms: _681  and  _682
REMARK  279  A    between atoms: _681  and  _684
REMARK  280  A    between atoms: _684  and  _685
REMARK  281  A    between atoms: _687  and  _689
REMARK  282  A    between atoms: _689  and  _690
REMARK  283  A    between atoms: _689  and  _692
REMARK  284  A    between atoms: _692  and  _693
REMARK  285  A    between atoms: _693  and  _694
REMARK  286  A    between atoms: _699  and  _701
REMARK  287  A    between atoms: _701  and  _702
REMARK  288  A    between atoms: _701  and  _704
REMARK  289  A    between atoms: _704  and  _705
REMARK  290  A    between atoms: _705  and  _706
REMARK  291  A    between atoms: _711  and  _713
REMARK  292  A    between atoms: _713  and  _714
REMARK  293  A    between atoms: _713  and  _716
REMARK  294  A    between atoms: _716  and  _717
REMARK  295  A    between atoms: _720  and  _722
REMARK  296  A    between atoms: _722  and  _723
REMARK  297  A    between atoms: _722  and  _725
REMARK  298  A    between atoms: _725  and  _726
REMARK  299  A    between atoms: _729  and  _731
REMARK  300  A    between atoms: _731  and  _732
REMARK  301  A    between atoms: _731  and  _734
REMARK  302  A    between atoms: _734  and  _735
REMARK  303  A    between atoms: _741  and  _743
REMARK  304  A    between atoms: _743  and  _744
REMARK  305  A    between atoms: _743  and  _746
REMARK  306  A    between atoms: _746  and  _747
REMARK  307  A    between atoms: _752  and  _753
REMARK  308  A    between atoms: _755  and  _757
REMARK  309  A    between atoms: _757  and  _758
REMARK  310  A    between atoms: _757  and  _760
REMARK  311  A    between atoms: _760  and  _761
REMARK  312  A    between atoms: _767  and  _769
REMARK  313  A    between atoms: _769  and  _770
REMARK  314  A    between atoms: _769  and  _772
REMARK  315  A    between atoms: _772  and  _773
REMARK  316  A    between atoms: _778  and  _780
REMARK  317  A    between atoms: _780  and  _781
REMARK  318  A    between atoms: _780  and  _783
REMARK  319  A    between atoms: _783  and  _784
REMARK  320  A    between atoms: _784  and  _785
REMARK                            x       y       z     vdW  Elec       q    Type
REMARK                         _______ _______ _______ _____ _____    ______ ____
ROOT
ATOM      1  O   HOH     1      23.152  45.349  24.296  0.00  0.00    +0.000 OA
ENDROOT
TORSDOF 0
REMARK  Name = ../refined-set-2016/3drf/3drf_pocket.pdb
REMARK  320 active torsions:
REMARK  status: ('A' for Active; 'I' for Inactive)
REMARK    1  A    between atoms: _1  and  _3
REMARK    2  A    between atoms: _3  and  _4
REMARK    3  A    between atoms: _3  and  _6
REMARK    4  A    between atoms: _6  and  _7
REMARK    5  A    between atoms: _12  and  _13
REMARK    6  A    between atoms: _15  and  _17
REMARK    7  A    between atoms: _17  and  _18
REMARK    8  A    between atoms: _17  and  _20
REMARK    9  A    between atoms: _20  and  _21
REMARK   10  A    between atoms: _21  and  _22
REMARK   11  A    between atoms: _27  and  _29
REMARK   12  A    between atoms: _29  and  _30
REMARK   13  A    between atoms: _29  and  _32
REMARK   14  A    between atoms: _32  and  _33
REMARK   15  A    between atoms: _35  and  _37
REMARK   16  A    between atoms: _37  and  _38
REMARK   17  A    between atoms: _37  and  _40
REMARK   18  A    between atoms: _40  and  _41
REMARK   19  A    between atoms: _44  and  _46
REMARK   20  A    between atoms: _46  and  _47
REMARK   21  A    between atoms: _46  and  _49
REMARK   22  A    between atoms: _49  and  _50
REMARK   23  A    between atoms: _52  and  _54
REMARK   24  A    between atoms: _54  and  _55
REMARK   25  A    between atoms: _54  and  _57
REMARK   26  A    between atoms: _57  and  _58
REMARK   27  A    between atoms: _60  and  _62
REMARK   28  A    between atoms: _62  and  _63
REMARK   29  A    between atoms: _65  and  _67
REMARK   30  A    between atoms: _67  and  _68
REMARK   31  A    between atoms: _67  and  _70
REMARK   32  A    between atoms: _70  and  _71
REMARK   33  A    between atoms: _73  and  _75
REMARK   34  A    between atoms: _75  and  _76
REMARK   35  A    between atoms: _75  and  _78
REMARK   36  A    between atoms: _78  and  _79
REMARK   37  A    between atoms: _84  and  _86
REMARK   38  A    between atoms: _86  and  _87
REMARK   39  A    between atoms: _86  and  _89
REMARK   40  A    between atoms: _89  and  _90
REMARK   41  A    between atoms: _93  and  _95
REMARK   42  A    between atoms: _95  and  _96
REMARK   43  A    between atoms: _99  and  _101
REMARK   44  A    between atoms: _101  and  _102
REMARK   45  A    between atoms: _101  and  _104
REMARK   46  A    between atoms: _104  and  _105
REMARK   47  A    between atoms: _108  and  _110
REMARK   48  A    between atoms: _110  and  _111
REMARK   49  A    between atoms: _110  and  _113
REMARK   50  A    between atoms: _113  and  _114
REMARK   51  A    between atoms: _120  and  _122
REMARK   52  A    between atoms: _122  and  _123
REMARK   53  A    between atoms: _126  and  _128
REMARK   54  A    between atoms: _128  and  _129
REMARK   55  A    between atoms: _128  and  _131
REMARK   56  A    between atoms: _131  and  _132
REMARK   57  A    between atoms: _135  and  _137
REMARK   58  A    between atoms: _137  and  _138
REMARK   59  A    between atoms: _140  and  _142
REMARK   60  A    between atoms: _142  and  _143
REMARK   61  A    between atoms: _142  and  _145
REMARK   62  A    between atoms: _145  and  _146
REMARK   63  A    between atoms: _146  and  _147
REMARK   64  A    between atoms: _152  and  _154
REMARK   65  A    between atoms: _154  and  _155
REMARK   66  A    between atoms: _157  and  _159
REMARK   67  A    between atoms: _159  and  _160
REMARK   68  A    between atoms: _159  and  _162
REMARK   69  A    between atoms: _162  and  _163
REMARK   70  A    between atoms: _166  and  _168
REMARK   71  A    between atoms: _168  and  _169
REMARK   72  A    between atoms: _168  and  _171
REMARK   73  A    between atoms: _171  and  _172
REMARK   74  A    between atoms: _178  and  _180
REMARK   75  A    between atoms: _180  and  _181
REMARK   76  A    between atoms: _180  and  _183
REMARK   77  A    between atoms: _183  and  _184
REMARK   78  A    between atoms: _187  and  _189
REMARK   79  A    between atoms: _189  and  _190
REMARK   80  A    between atoms: _189  and  _192
REMARK   81  A    between atoms: _192  and  _193
REMARK   82  A    between atoms: _199  and  _201
REMARK   83  A    between atoms: _201  and  _202
REMARK   84  A    between atoms: _201  and  _204
REMARK   85  A    between atoms: _204  and  _205
REMARK   86  A    between atoms: _211  and  _213
REMARK   87  A    between atoms: _213  and  _214
REMARK   88  A    between atoms: _213  and  _216
REMARK   89  A    between atoms: _216  and  _217
REMARK   90  A    between atoms: _220  and  _222
REMARK   91  A    between atoms: _222  and  _223
REMARK   92  A    between atoms: _222  and  _225
REMARK   93  A    between atoms: _225  and  _226
REMARK   94  A    between atoms: _229  and  _231
REMARK   95  A    between atoms: _231  and  _232
REMARK   96  A    between atoms: _231  and  _234
REMARK   97  A    between atoms: _234  and  _235
REMARK   98  A    between atoms: _235  and  _236
REMARK   99  A    between atoms: _236  and  _237
REMARK  100  A    between atoms: _246  and  _248
REMARK  101  A    between atoms: _248  and  _249
REMARK  102  A    between atoms: _248  and  _251
REMARK  103  A    between atoms: _251  and  _252
REMARK  104  A    between atoms: _255  and  _257
REMARK  105  A    between atoms: _257  and  _258
REMARK  106  A    between atoms: _257  and  _260
REMARK  107  A    between atoms: _260  and  _261
REMARK  108  A    between atoms: _263  and  _265
REMARK  109  A    between atoms: _265  and  _266
REMARK  110  A    between atoms: _265  and  _268
REMARK  111  A    between atoms: _268  and  _269
REMARK  112  A    between atoms: _269  and  _270
REMARK  113  A    between atoms: _275  and  _277
REMARK  114  A    between atoms: _277  and  _278
REMARK  115  A    between atoms: _277  and  _280
REMARK  116  A    between atoms: _280  and  _281
REMARK  117  A    between atoms: _283  and  _285
REMARK  118  A    between atoms: _285  and  _286
REMARK  119  A    between atoms: _288  and  _290
REMARK  120  A    between atoms: _290  and  _291
REMARK  121  A    between atoms: _290  and  _293
REMARK  122  A    between atoms: _293  and  _294
REMARK  123  A    between atoms: _299  and  _301
REMARK  124  A    between atoms: _301  and  _302
REMARK  125  A    between atoms: _304  and  _306
REMARK  126  A    between atoms: _306  and  _307
REMARK  127  A    between atoms: _306  and  _309
REMARK  128  A    between atoms: _309  and  _310
REMARK  129  A    between atoms: _315  and  _316
REMARK  130  A    between atoms: _318  and  _320
REMARK  131  A    between atoms: _320  and  _321
REMARK  132  A    between atoms: _320  and  _323
REMARK  133  A    between atoms: _323  and  _324
REMARK  134  A    between atoms: _330  and  _332
REMARK  135  A    between atoms: _332  and  _333
REMARK  136  A    between atoms: _332  and  _335
REMARK  137  A    between atoms: _335  and  _336
REMARK  138  A    between atoms: _339  and  _341
REMARK  139  A    between atoms: _341  and  _342
REMARK  140  A    between atoms: _341  and  _344
REMARK  141  A    between atoms: _344  and  _345
REMARK  142  A    between atoms: _345  and  _346
REMARK  143  A    between atoms: _349  and  _351
REMARK  144  A    between atoms: _351  and  _352
REMARK  145  A    between atoms: _351  and  _354
REMARK  146  A    between atoms: _354  and  _355
REMARK  147  A    between atoms: _358  and  _360
REMARK  148  A    between atoms: _360  and  _361
REMARK  149  A    between atoms: _360  and  _363
REMARK  150  A    between atoms: _363  and  _364
REMARK  151  A    between atoms: _367  and  _369
REMARK  152  A    between atoms: _369  and  _370
REMARK  153  A    between atoms: _372  and  _374
REMARK  154  A    between atoms: _374  and  _375
REMARK  155  A    between atoms: _374  and  _377
REMARK  156  A    between atoms: _380  and  _382
REMARK  157  A    between atoms: _382  and  _383
REMARK  158  A    between atoms: _382  and  _385
REMARK  159  A    between atoms: _385  and  _386
REMARK  160  A    between atoms: _388  and  _390
REMARK  161  A    between atoms: _390  and  _391
REMARK  162  A    between atoms: _390  and  _393
REMARK  163  A    between atoms: _393  and  _394
REMARK  164  A    between atoms: _394  and  _395
REMARK  165  A    between atoms: _397  and  _399
REMARK  166  A    between atoms: _399  and  _400
REMARK  167  A    between atoms: _399  and  _402
REMARK  168  A    between atoms: _402  and  _403
REMARK  169  A    between atoms: _408  and  _409
REMARK  170  A    between atoms: _411  and  _413
REMARK  171  A    between atoms: _413  and  _414
REMARK  172  A    between atoms: _413  and  _416
REMARK  173  A    between atoms: _416  and  _417
REMARK  174  A    between atoms: _420  and  _422
REMARK  175  A    between atoms: _422  and  _423
REMARK  176  A    between atoms: _422  and  _425
REMARK  177  A    between atoms: _425  and  _426
REMARK  178  A    between atoms: _428  and  _430
REMARK  179  A    between atoms: _430  and  _431
REMARK  180  A    between atoms: _430  and  _433
REMARK  181  A    between atoms: _433  and  _434
REMARK  182  A    between atoms: _437  and  _439
REMARK  183  A    between atoms: _439  and  _440
REMARK  184  A    between atoms: _439  and  _442
REMARK  185  A    between atoms: _442  and  _443
REMARK  186  A    between atoms: _448  and  _449
REMARK  187  A    between atoms: _451  and  _453
REMARK  188  A    between atoms: _453  and  _454
REMARK  189  A    between atoms: _453  and  _456
REMARK  190  A    between atoms: _456  and  _457
REMARK  191  A    between atoms: _459  and  _461
REMARK  192  A    between atoms: _461  and  _462
REMARK  193  A    between atoms: _461  and  _464
REMARK  194  A    between atoms: _464  and  _465
REMARK  195  A    between atoms: _471  and  _473
REMARK  196  A    between atoms: _473  and  _474
REMARK  197  A    between atoms: _473  and  _476
REMARK  198  A    between atoms: _476  and  _477
REMARK  199  A    between atoms: _477  and  _478
REMARK  200  A    between atoms: _478  and  _479
REMARK  201  A    between atoms: _488  and  _490
REMARK  202  A    between atoms: _490  and  _491
REMARK  203  A    between atoms: _490  and  _493
REMARK  204  A    between atoms: _496  and  _498
REMARK  205  A    between atoms: _498  and  _499
REMARK  206  A    between atoms: _501  and  _503
REMARK  207  A    between atoms: _503  and  _504
REMARK  208  A    between atoms: _503  and  _506
REMARK  209  A    between atoms: _506  and  _507
REMARK  210  A    between atoms: _510  and  _512
REMARK  211  A    between atoms: _512  and  _513
REMARK  212  A    between atoms: _512  and  _515
REMARK  213  A    between atoms: _515  and  _516
REMARK  214  A    between atoms: _516  and  _517
REMARK  215  A    between atoms: _519  and  _521
REMARK  216  A    between atoms: _521  and  _522
REMARK  217  A    between atoms: _521  and  _524
REMARK  218  A    between atoms: _524  and  _525
REMARK  219  A    between atoms: _531  and  _533
REMARK  220  A    between atoms: _533  and  _534
REMARK  221  A    between atoms: _533  and  _536
REMARK  222  A    between atoms: _536  and  _537
REMARK  223  A    between atoms: _542  and  _544
REMARK  224  A    between atoms: _544  and  _545
REMARK  225  A    between atoms: _544  and  _547
REMARK  226  A    between atoms: _547  and  _548
REMARK  227  A    between atoms: _558  and  _560
REMARK  228  A    between atoms: _560  and  _561
REMARK  229  A    between atoms: _560  and  _563
REMARK  230  A    between atoms: _566  and  _568
REMARK  231  A    between atoms: _568  and  _569
REMARK  232  A    between atoms: _568  and  _571
REMARK  233  A    between atoms: _571  and  _572
REMARK  234  A    between atoms: _575  and  _577
REMARK  235  A    between atoms: _577  and  _578
REMARK  236  A    between atoms: _577  and  _580
REMARK  237  A    between atoms: _580  and  _581
REMARK  238  A    between atoms: _581  and  _582
REMARK  239  A    between atoms: _584  and  _586
REMARK  240  A    between atoms: _586  and  _587
REMARK  241  A    between atoms: _586  and  _589
REMARK  242  A    between atoms: _589  and  _590
REMARK  243  A    between atoms: _593  and  _595
REMARK  244  A    between atoms: _595  and  _596
REMARK  245  A    between atoms: _595  and  _598
REMARK  246  A    between atoms: _598  and  _599
REMARK  247  A    between atoms: _602  and  _604
REMARK  248  A    between atoms: _604  and  _605
REMARK  249  A    between atoms: _607  and  _609
REMARK  250  A    between atoms: _609  and  _610
REMARK  251  A    between atoms: _609  and  _612
REMARK  252  A    between atoms: _612  and  _613
REMARK  253  A    between atoms: _615  and  _617
REMARK  254  A    between atoms: _617  and  _618
REMARK  255  A    between atoms: _617  and  _620
REMARK  256  A    between atoms: _620  and  _621
REMARK  257  A    between atoms: _631  and  _633
REMARK  258  A    between atoms: _633  and  _634
REMARK  259  A    between atoms: _633  and  _636
REMARK  260  A    between atoms: _636  and  _637
REMARK  261  A    between atoms: _639  and  _641
REMARK  262  A    between atoms: _641  and  _642
REMARK  263  A    between atoms: _641  and  _644
REMARK  264  A    between atoms: _644  and  _645
REMARK  265  A    between atoms: _648  and  _650
REMARK  266  A    between atoms: _650  and  _651
REMARK  267  A    between atoms: _654  and  _656
REMARK  268  A    between atoms: _656  and  _657
REMARK  269  A    between atoms: _656  and  _659
REMARK  270  A    between atoms: _659  and  _660
REMARK  271  A    between atoms: _662  and  _664
REMARK  272  A    between atoms: _664  and  _665
REMARK  273  A    between atoms: _664  and  _667
REMARK  274  A    between atoms: _667  and  _668
REMARK  275  A    between atoms: _668  and  _669
REMARK  276  A    between atoms: _673  and  _674
REMARK  277  A    between atoms: _679  and  _681
REMARK  278  A    between atoms: _681  and  _682
REMARK  279  A    between atoms: _681  and  _684
REMARK  280  A    between atoms: _684  and  _685
REMARK  281  A    between atoms: _687  and  _689
REMARK  282  A    between atoms: _689  and  _690
REMARK  283  A    between atoms: _689  and  _692
REMARK  284  A    between atoms: _692  and  _693
REMARK  285  A    between atoms: _693  and  _694
REMARK  286  A    between atoms: _699  and  _701
REMARK  287  A    between atoms: _701  and  _702
REMARK  288  A    between atoms: _701  and  _704
REMARK  289  A    between atoms: _704  and  _705
REMARK  290  A    between atoms: _705  and  _706
REMARK  291  A    between atoms: _711  and  _713
REMARK  292  A    between atoms: _713  and  _714
REMARK  293  A    between atoms: _713  and  _716
REMARK  294  A    between atoms: _716  and  _717
REMARK  295  A    between atoms: _720  and  _722
REMARK  296  A    between atoms: _722  and  _723
REMARK  297  A    between atoms: _722  and  _725
REMARK  298  A    between atoms: _725  and  _726
REMARK  299  A    between atoms: _729  and  _731
REMARK  300  A    between atoms: _731  and  _732
REMARK  301  A    between atoms: _731  and  _734
REMARK  302  A    between atoms: _734  and  _735
REMARK  303  A    between atoms: _741  and  _743
REMARK  304  A    between atoms: _743  and  _744
REMARK  305  A    between atoms: _743  and  _746
REMARK  306  A    between atoms: _746  and  _747
REMARK  307  A    between atoms: _752  and  _753
REMARK  308  A    between atoms: _755  and  _757
REMARK  309  A    between atoms: _757  and  _758
REMARK  310  A    between atoms: _757  and  _760
REMARK  311  A    between atoms: _760  and  _761
REMARK  312  A    between atoms: _767  and  _769
REMARK  313  A    between atoms: _769  and  _770
REMARK  314  A    between atoms: _769  and  _772
REMARK  315  A    between atoms: _772  and  _773
REMARK  316  A    between atoms: _778  and  _780
REMARK  317  A    between atoms: _780  and  _781
REMARK  318  A    between atoms: _780  and  _783
REMARK  319  A    between atoms: _783  and  _784
REMARK  320  A    between atoms: _784  and  _785
REMARK                            x       y       z     vdW  Elec       q    Type
REMARK                         _______ _______ _______ _____ _____    ______ ____
ROOT
ATOM      1  O   HOH     1      22.651  45.675  31.603  0.00  0.00    +0.000 OA
ENDROOT
TORSDOF 0
REMARK  Name = ../refined-set-2016/3drf/3drf_pocket.pdb
REMARK  320 active torsions:
REMARK  status: ('A' for Active; 'I' for Inactive)
REMARK    1  A    between atoms: _1  and  _3
REMARK    2  A    between atoms: _3  and  _4
REMARK    3  A    between atoms: _3  and  _6
REMARK    4  A    between atoms: _6  and  _7
REMARK    5  A    between atoms: _12  and  _13
REMARK    6  A    between atoms: _15  and  _17
REMARK    7  A    between atoms: _17  and  _18
REMARK    8  A    between atoms: _17  and  _20
REMARK    9  A    between atoms: _20  and  _21
REMARK   10  A    between atoms: _21  and  _22
REMARK   11  A    between atoms: _27  and  _29
REMARK   12  A    between atoms: _29  and  _30
REMARK   13  A    between atoms: _29  and  _32
REMARK   14  A    between atoms: _32  and  _33
REMARK   15  A    between atoms: _35  and  _37
REMARK   16  A    between atoms: _37  and  _38
REMARK   17  A    between atoms: _37  and  _40
REMARK   18  A    between atoms: _40  and  _41
REMARK   19  A    between atoms: _44  and  _46
REMARK   20  A    between atoms: _46  and  _47
REMARK   21  A    between atoms: _46  and  _49
REMARK   22  A    between atoms: _49  and  _50
REMARK   23  A    between atoms: _52  and  _54
REMARK   24  A    between atoms: _54  and  _55
REMARK   25  A    between atoms: _54  and  _57
REMARK   26  A    between atoms: _57  and  _58
REMARK   27  A    between atoms: _60  and  _62
REMARK   28  A    between atoms: _62  and  _63
REMARK   29  A    between atoms: _65  and  _67
REMARK   30  A    between atoms: _67  and  _68
REMARK   31  A    between atoms: _67  and  _70
REMARK   32  A    between atoms: _70  and  _71
REMARK   33  A    between atoms: _73  and  _75
REMARK   34  A    between atoms: _75  and  _76
REMARK   35  A    between atoms: _75  and  _78
REMARK   36  A    between atoms: _78  and  _79
REMARK   37  A    between atoms: _84  and  _86
REMARK   38  A    between atoms: _86  and  _87
REMARK   39  A    between atoms: _86  and  _89
REMARK   40  A    between atoms: _89  and  _90
REMARK   41  A    between atoms: _93  and  _95
REMARK   42  A    between atoms: _95  and  _96
REMARK   43  A    between atoms: _99  and  _101
REMARK   44  A    between atoms: _101  and  _102
REMARK   45  A    between atoms: _101  and  _104
REMARK   46  A    between atoms: _104  and  _105
REMARK   47  A    between atoms: _108  and  _110
REMARK   48  A    between atoms: _110  and  _111
REMARK   49  A    between atoms: _110  and  _113
REMARK   50  A    between atoms: _113  and  _114
REMARK   51  A    between atoms: _120  and  _122
REMARK   52  A    between atoms: _122  and  _123
REMARK   53  A    between atoms: _126  and  _128
REMARK   54  A    between atoms: _128  and  _129
REMARK   55  A    between atoms: _128  and  _131
REMARK   56  A    between atoms: _131  and  _132
REMARK   57  A    between atoms: _135  and  _137
REMARK   58  A    between atoms: _137  and  _138
REMARK   59  A    between atoms: _140  and  _142
REMARK   60  A    between atoms: _142  and  _143
REMARK   61  A    between atoms: _142  and  _145
REMARK   62  A    between atoms: _145  and  _146
REMARK   63  A    between atoms: _146  and  _147
REMARK   64  A    between atoms: _152  and  _154
REMARK   65  A    between atoms: _154  and  _155
REMARK   66  A    between atoms: _157  and  _159
REMARK   67  A    between atoms: _159  and  _160
REMARK   68  A    between atoms: _159  and  _162
REMARK   69  A    between atoms: _162  and  _163
REMARK   70  A    between atoms: _166  and  _168
REMARK   71  A    between atoms: _168  and  _169
REMARK   72  A    between atoms: _168  and  _171
REMARK   73  A    between atoms: _171  and  _172
REMARK   74  A    between atoms: _178  and  _180
REMARK   75  A    between atoms: _180  and  _181
REMARK   76  A    between atoms: _180  and  _183
REMARK   77  A    between atoms: _183  and  _184
REMARK   78  A    between atoms: _187  and  _189
REMARK   79  A    between atoms: _189  and  _190
REMARK   80  A    between atoms: _189  and  _192
REMARK   81  A    between atoms: _192  and  _193
REMARK   82  A    between atoms: _199  and  _201
REMARK   83  A    between atoms: _201  and  _202
REMARK   84  A    between atoms: _201  and  _204
REMARK   85  A    between atoms: _204  and  _205
REMARK   86  A    between atoms: _211  and  _213
REMARK   87  A    between atoms: _213  and  _214
REMARK   88  A    between atoms: _213  and  _216
REMARK   89  A    between atoms: _216  and  _217
REMARK   90  A    between atoms: _220  and  _222
REMARK   91  A    between atoms: _222  and  _223
REMARK   92  A    between atoms: _222  and  _225
REMARK   93  A    between atoms: _225  and  _226
REMARK   94  A    between atoms: _229  and  _231
REMARK   95  A    between atoms: _231  and  _232
REMARK   96  A    between atoms: _231  and  _234
REMARK   97  A    between atoms: _234  and  _235
REMARK   98  A    between atoms: _235  and  _236
REMARK   99  A    between atoms: _236  and  _237
REMARK  100  A    between atoms: _246  and  _248
REMARK  101  A    between atoms: _248  and  _249
REMARK  102  A    between atoms: _248  and  _251
REMARK  103  A    between atoms: _251  and  _252
REMARK  104  A    between atoms: _255  and  _257
REMARK  105  A    between atoms: _257  and  _258
REMARK  106  A    between atoms: _257  and  _260
REMARK  107  A    between atoms: _260  and  _261
REMARK  108  A    between atoms: _263  and  _265
REMARK  109  A    between atoms: _265  and  _266
REMARK  110  A    between atoms: _265  and  _268
REMARK  111  A    between atoms: _268  and  _269
REMARK  112  A    between atoms: _269  and  _270
REMARK  113  A    between atoms: _275  and  _277
REMARK  114  A    between atoms: _277  and  _278
REMARK  115  A    between atoms: _277  and  _280
REMARK  116  A    between atoms: _280  and  _281
REMARK  117  A    between atoms: _283  and  _285
REMARK  118  A    between atoms: _285  and  _286
REMARK  119  A    between atoms: _288  and  _290
REMARK  120  A    between atoms: _290  and  _291
REMARK  121  A    between atoms: _290  and  _293
REMARK  122  A    between atoms: _293  and  _294
REMARK  123  A    between atoms: _299  and  _301
REMARK  124  A    between atoms: _301  and  _302
REMARK  125  A    between atoms: _304  and  _306
REMARK  126  A    between atoms: _306  and  _307
REMARK  127  A    between atoms: _306  and  _309
REMARK  128  A    between atoms: _309  and  _310
REMARK  129  A    between atoms: _315  and  _316
REMARK  130  A    between atoms: _318  and  _320
REMARK  131  A    between atoms: _320  and  _321
REMARK  132  A    between atoms: _320  and  _323
REMARK  133  A    between atoms: _323  and  _324
REMARK  134  A    between atoms: _330  and  _332
REMARK  135  A    between atoms: _332  and  _333
REMARK  136  A    between atoms: _332  and  _335
REMARK  137  A    between atoms: _335  and  _336
REMARK  138  A    between atoms: _339  and  _341
REMARK  139  A    between atoms: _341  and  _342
REMARK  140  A    between atoms: _341  and  _344
REMARK  141  A    between atoms: _344  and  _345
REMARK  142  A    between atoms: _345  and  _346
REMARK  143  A    between atoms: _349  and  _351
REMARK  144  A    between atoms: _351  and  _352
REMARK  145  A    between atoms: _351  and  _354
REMARK  146  A    between atoms: _354  and  _355
REMARK  147  A    between atoms: _358  and  _360
REMARK  148  A    between atoms: _360  and  _361
REMARK  149  A    between atoms: _360  and  _363
REMARK  150  A    between atoms: _363  and  _364
REMARK  151  A    between atoms: _367  and  _369
REMARK  152  A    between atoms: _369  and  _370
REMARK  153  A    between atoms: _372  and  _374
REMARK  154  A    between atoms: _374  and  _375
REMARK  155  A    between atoms: _374  and  _377
REMARK  156  A    between atoms: _380  and  _382
REMARK  157  A    between atoms: _382  and  _383
REMARK  158  A    between atoms: _382  and  _385
REMARK  159  A    between atoms: _385  and  _386
REMARK  160  A    between atoms: _388  and  _390
REMARK  161  A    between atoms: _390  and  _391
REMARK  162  A    between atoms: _390  and  _393
REMARK  163  A    between atoms: _393  and  _394
REMARK  164  A    between atoms: _394  and  _395
REMARK  165  A    between atoms: _397  and  _399
REMARK  166  A    between atoms: _399  and  _400
REMARK  167  A    between atoms: _399  and  _402
REMARK  168  A    between atoms: _402  and  _403
REMARK  169  A    between atoms: _408  and  _409
REMARK  170  A    between atoms: _411  and  _413
REMARK  171  A    between atoms: _413  and  _414
REMARK  172  A    between atoms: _413  and  _416
REMARK  173  A    between atoms: _416  and  _417
REMARK  174  A    between atoms: _420  and  _422
REMARK  175  A    between atoms: _422  and  _423
REMARK  176  A    between atoms: _422  and  _425
REMARK  177  A    between atoms: _425  and  _426
REMARK  178  A    between atoms: _428  and  _430
REMARK  179  A    between atoms: _430  and  _431
REMARK  180  A    between atoms: _430  and  _433
REMARK  181  A    between atoms: _433  and  _434
REMARK  182  A    between atoms: _437  and  _439
REMARK  183  A    between atoms: _439  and  _440
REMARK  184  A    between atoms: _439  and  _442
REMARK  185  A    between atoms: _442  and  _443
REMARK  186  A    between atoms: _448  and  _449
REMARK  187  A    between atoms: _451  and  _453
REMARK  188  A    between atoms: _453  and  _454
REMARK  189  A    between atoms: _453  and  _456
REMARK  190  A    between atoms: _456  and  _457
REMARK  191  A    between atoms: _459  and  _461
REMARK  192  A    between atoms: _461  and  _462
REMARK  193  A    between atoms: _461  and  _464
REMARK  194  A    between atoms: _464  and  _465
REMARK  195  A    between atoms: _471  and  _473
REMARK  196  A    between atoms: _473  and  _474
REMARK  197  A    between atoms: _473  and  _476
REMARK  198  A    between atoms: _476  and  _477
REMARK  199  A    between atoms: _477  and  _478
REMARK  200  A    between atoms: _478  and  _479
REMARK  201  A    between atoms: _488  and  _490
REMARK  202  A    between atoms: _490  and  _491
REMARK  203  A    between atoms: _490  and  _493
REMARK  204  A    between atoms: _496  and  _498
REMARK  205  A    between atoms: _498  and  _499
REMARK  206  A    between atoms: _501  and  _503
REMARK  207  A    between atoms: _503  and  _504
REMARK  208  A    between atoms: _503  and  _506
REMARK  209  A    between atoms: _506  and  _507
REMARK  210  A    between atoms: _510  and  _512
REMARK  211  A    between atoms: _512  and  _513
REMARK  212  A    between atoms: _512  and  _515
REMARK  213  A    between atoms: _515  and  _516
REMARK  214  A    between atoms: _516  and  _517
REMARK  215  A    between atoms: _519  and  _521
REMARK  216  A    between atoms: _521  and  _522
REMARK  217  A    between atoms: _521  and  _524
REMARK  218  A    between atoms: _524  and  _525
REMARK  219  A    between atoms: _531  and  _533
REMARK  220  A    between atoms: _533  and  _534
REMARK  221  A    between atoms: _533  and  _536
REMARK  222  A    between atoms: _536  and  _537
REMARK  223  A    between atoms: _542  and  _544
REMARK  224  A    between atoms: _544  and  _545
REMARK  225  A    between atoms: _544  and  _547
REMARK  226  A    between atoms: _547  and  _548
REMARK  227  A    between atoms: _558  and  _560
REMARK  228  A    between atoms: _560  and  _561
REMARK  229  A    between atoms: _560  and  _563
REMARK  230  A    between atoms: _566  and  _568
REMARK  231  A    between atoms: _568  and  _569
REMARK  232  A    between atoms: _568  and  _571
REMARK  233  A    between atoms: _571  and  _572
REMARK  234  A    between atoms: _575  and  _577
REMARK  235  A    between atoms: _577  and  _578
REMARK  236  A    between atoms: _577  and  _580
REMARK  237  A    between atoms: _580  and  _581
REMARK  238  A    between atoms: _581  and  _582
REMARK  239  A    between atoms: _584  and  _586
REMARK  240  A    between atoms: _586  and  _587
REMARK  241  A    between atoms: _586  and  _589
REMARK  242  A    between atoms: _589  and  _590
REMARK  243  A    between atoms: _593  and  _595
REMARK  244  A    between atoms: _595  and  _596
REMARK  245  A    between atoms: _595  and  _598
REMARK  246  A    between atoms: _598  and  _599
REMARK  247  A    between atoms: _602  and  _604
REMARK  248  A    between atoms: _604  and  _605
REMARK  249  A    between atoms: _607  and  _609
REMARK  250  A    between atoms: _609  and  _610
REMARK  251  A    between atoms: _609  and  _612
REMARK  252  A    between atoms: _612  and  _613
REMARK  253  A    between atoms: _615  and  _617
REMARK  254  A    between atoms: _617  and  _618
REMARK  255  A    between atoms: _617  and  _620
REMARK  256  A    between atoms: _620  and  _621
REMARK  257  A    between atoms: _631  and  _633
REMARK  258  A    between atoms: _633  and  _634
REMARK  259  A    between atoms: _633  and  _636
REMARK  260  A    between atoms: _636  and  _637
REMARK  261  A    between atoms: _639  and  _641
REMARK  262  A    between atoms: _641  and  _642
REMARK  263  A    between atoms: _641  and  _644
REMARK  264  A    between atoms: _644  and  _645
REMARK  265  A    between atoms: _648  and  _650
REMARK  266  A    between atoms: _650  and  _651
REMARK  267  A    between atoms: _654  and  _656
REMARK  268  A    between atoms: _656  and  _657
REMARK  269  A    between atoms: _656  and  _659
REMARK  270  A    between atoms: _659  and  _660
REMARK  271  A    between atoms: _662  and  _664
REMARK  272  A    between atoms: _664  and  _665
REMARK  273  A    between atoms: _664  and  _667
REMARK  274  A    between atoms: _667  and  _668
REMARK  275  A    between atoms: _668  and  _669
REMARK  276  A    between atoms: _673  and  _674
REMARK  277  A    between atoms: _679  and  _681
REMARK  278  A    between atoms: _681  and  _682
REMARK  279  A    between atoms: _681  and  _684
REMARK  280  A    between atoms: _684  and  _685
REMARK  281  A    between atoms: _687  and  _689
REMARK  282  A    between atoms: _689  and  _690
REMARK  283  A    between atoms: _689  and  _692
REMARK  284  A    between atoms: _692  and  _693
REMARK  285  A    between atoms: _693  and  _694
REMARK  286  A    between atoms: _699  and  _701
REMARK  287  A    between atoms: _701  and  _702
REMARK  288  A    between atoms: _701  and  _704
REMARK  289  A    between atoms: _704  and  _705
REMARK  290  A    between atoms: _705  and  _706
REMARK  291  A    between atoms: _711  and  _713
REMARK  292  A    between atoms: _713  and  _714
REMARK  293  A    between atoms: _713  and  _716
REMARK  294  A    between atoms: _716  and  _717
REMARK  295  A    between atoms: _720  and  _722
REMARK  296  A    between atoms: _722  and  _723
REMARK  297  A    between atoms: _722  and  _725
REMARK  298  A    between atoms: _725  and  _726
REMARK  299  A    between atoms: _729  and  _731
REMARK  300  A    between atoms: _731  and  _732
REMARK  301  A    between atoms: _731  and  _734
REMARK  302  A    between atoms: _734  and  _735
REMARK  303  A    between atoms: _741  and  _743
REMARK  304  A    between atoms: _743  and  _744
REMARK  305  A    between atoms: _743  and  _746
REMARK  306  A    between atoms: _746  and  _747
REMARK  307  A    between atoms: _752  and  _753
REMARK  308  A    between atoms: _755  and  _757
REMARK  309  A    between atoms: _757  and  _758
REMARK  310  A    between atoms: _757  and  _760
REMARK  311  A    between atoms: _760  and  _761
REMARK  312  A    between atoms: _767  and  _769
REMARK  313  A    between atoms: _769  and  _770
REMARK  314  A    between atoms: _769  and  _772
REMARK  315  A    between atoms: _772  and  _773
REMARK  316  A    between atoms: _778  and  _780
REMARK  317  A    between atoms: _780  and  _781
REMARK  318  A    between atoms: _780  and  _783
REMARK  319  A    between atoms: _783  and  _784
REMARK  320  A    between atoms: _784  and  _785
REMARK                            x       y       z     vdW  Elec       q    Type
REMARK                         _______ _______ _______ _____ _____    ______ ____
ROOT
ATOM      1  O   HOH     1       6.420  57.702  18.894  0.00  0.00    +0.000 OA
ENDROOT
TORSDOF 0
REMARK  Name = ../refined-set-2016/3drf/3drf_pocket.pdb
REMARK  320 active torsions:
REMARK  status: ('A' for Active; 'I' for Inactive)
REMARK    1  A    between atoms: _1  and  _3
REMARK    2  A    between atoms: _3  and  _4
REMARK    3  A    between atoms: _3  and  _6
REMARK    4  A    between atoms: _6  and  _7
REMARK    5  A    between atoms: _12  and  _13
REMARK    6  A    between atoms: _15  and  _17
REMARK    7  A    between atoms: _17  and  _18
REMARK    8  A    between atoms: _17  and  _20
REMARK    9  A    between atoms: _20  and  _21
REMARK   10  A    between atoms: _21  and  _22
REMARK   11  A    between atoms: _27  and  _29
REMARK   12  A    between atoms: _29  and  _30
REMARK   13  A    between atoms: _29  and  _32
REMARK   14  A    between atoms: _32  and  _33
REMARK   15  A    between atoms: _35  and  _37
REMARK   16  A    between atoms: _37  and  _38
REMARK   17  A    between atoms: _37  and  _40
REMARK   18  A    between atoms: _40  and  _41
REMARK   19  A    between atoms: _44  and  _46
REMARK   20  A    between atoms: _46  and  _47
REMARK   21  A    between atoms: _46  and  _49
REMARK   22  A    between atoms: _49  and  _50
REMARK   23  A    between atoms: _52  and  _54
REMARK   24  A    between atoms: _54  and  _55
REMARK   25  A    between atoms: _54  and  _57
REMARK   26  A    between atoms: _57  and  _58
REMARK   27  A    between atoms: _60  and  _62
REMARK   28  A    between atoms: _62  and  _63
REMARK   29  A    between atoms: _65  and  _67
REMARK   30  A    between atoms: _67  and  _68
REMARK   31  A    between atoms: _67  and  _70
REMARK   32  A    between atoms: _70  and  _71
REMARK   33  A    between atoms: _73  and  _75
REMARK   34  A    between atoms: _75  and  _76
REMARK   35  A    between atoms: _75  and  _78
REMARK   36  A    between atoms: _78  and  _79
REMARK   37  A    between atoms: _84  and  _86
REMARK   38  A    between atoms: _86  and  _87
REMARK   39  A    between atoms: _86  and  _89
REMARK   40  A    between atoms: _89  and  _90
REMARK   41  A    between atoms: _93  and  _95
REMARK   42  A    between atoms: _95  and  _96
REMARK   43  A    between atoms: _99  and  _101
REMARK   44  A    between atoms: _101  and  _102
REMARK   45  A    between atoms: _101  and  _104
REMARK   46  A    between atoms: _104  and  _105
REMARK   47  A    between atoms: _108  and  _110
REMARK   48  A    between atoms: _110  and  _111
REMARK   49  A    between atoms: _110  and  _113
REMARK   50  A    between atoms: _113  and  _114
REMARK   51  A    between atoms: _120  and  _122
REMARK   52  A    between atoms: _122  and  _123
REMARK   53  A    between atoms: _126  and  _128
REMARK   54  A    between atoms: _128  and  _129
REMARK   55  A    between atoms: _128  and  _131
REMARK   56  A    between atoms: _131  and  _132
REMARK   57  A    between atoms: _135  and  _137
REMARK   58  A    between atoms: _137  and  _138
REMARK   59  A    between atoms: _140  and  _142
REMARK   60  A    between atoms: _142  and  _143
REMARK   61  A    between atoms: _142  and  _145
REMARK   62  A    between atoms: _145  and  _146
REMARK   63  A    between atoms: _146  and  _147
REMARK   64  A    between atoms: _152  and  _154
REMARK   65  A    between atoms: _154  and  _155
REMARK   66  A    between atoms: _157  and  _159
REMARK   67  A    between atoms: _159  and  _160
REMARK   68  A    between atoms: _159  and  _162
REMARK   69  A    between atoms: _162  and  _163
REMARK   70  A    between atoms: _166  and  _168
REMARK   71  A    between atoms: _168  and  _169
REMARK   72  A    between atoms: _168  and  _171
REMARK   73  A    between atoms: _171  and  _172
REMARK   74  A    between atoms: _178  and  _180
REMARK   75  A    between atoms: _180  and  _181
REMARK   76  A    between atoms: _180  and  _183
REMARK   77  A    between atoms: _183  and  _184
REMARK   78  A    between atoms: _187  and  _189
REMARK   79  A    between atoms: _189  and  _190
REMARK   80  A    between atoms: _189  and  _192
REMARK   81  A    between atoms: _192  and  _193
REMARK   82  A    between atoms: _199  and  _201
REMARK   83  A    between atoms: _201  and  _202
REMARK   84  A    between atoms: _201  and  _204
REMARK   85  A    between atoms: _204  and  _205
REMARK   86  A    between atoms: _211  and  _213
REMARK   87  A    between atoms: _213  and  _214
REMARK   88  A    between atoms: _213  and  _216
REMARK   89  A    between atoms: _216  and  _217
REMARK   90  A    between atoms: _220  and  _222
REMARK   91  A    between atoms: _222  and  _223
REMARK   92  A    between atoms: _222  and  _225
REMARK   93  A    between atoms: _225  and  _226
REMARK   94  A    between atoms: _229  and  _231
REMARK   95  A    between atoms: _231  and  _232
REMARK   96  A    between atoms: _231  and  _234
REMARK   97  A    between atoms: _234  and  _235
REMARK   98  A    between atoms: _235  and  _236
REMARK   99  A    between atoms: _236  and  _237
REMARK  100  A    between atoms: _246  and  _248
REMARK  101  A    between atoms: _248  and  _249
REMARK  102  A    between atoms: _248  and  _251
REMARK  103  A    between atoms: _251  and  _252
REMARK  104  A    between atoms: _255  and  _257
REMARK  105  A    between atoms: _257  and  _258
REMARK  106  A    between atoms: _257  and  _260
REMARK  107  A    between atoms: _260  and  _261
REMARK  108  A    between atoms: _263  and  _265
REMARK  109  A    between atoms: _265  and  _266
REMARK  110  A    between atoms: _265  and  _268
REMARK  111  A    between atoms: _268  and  _269
REMARK  112  A    between atoms: _269  and  _270
REMARK  113  A    between atoms: _275  and  _277
REMARK  114  A    between atoms: _277  and  _278
REMARK  115  A    between atoms: _277  and  _280
REMARK  116  A    between atoms: _280  and  _281
REMARK  117  A    between atoms: _283  and  _285
REMARK  118  A    between atoms: _285  and  _286
REMARK  119  A    between atoms: _288  and  _290
REMARK  120  A    between atoms: _290  and  _291
REMARK  121  A    between atoms: _290  and  _293
REMARK  122  A    between atoms: _293  and  _294
REMARK  123  A    between atoms: _299  and  _301
REMARK  124  A    between atoms: _301  and  _302
REMARK  125  A    between atoms: _304  and  _306
REMARK  126  A    between atoms: _306  and  _307
REMARK  127  A    between atoms: _306  and  _309
REMARK  128  A    between atoms: _309  and  _310
REMARK  129  A    between atoms: _315  and  _316
REMARK  130  A    between atoms: _318  and  _320
REMARK  131  A    between atoms: _320  and  _321
REMARK  132  A    between atoms: _320  and  _323
REMARK  133  A    between atoms: _323  and  _324
REMARK  134  A    between atoms: _330  and  _332
REMARK  135  A    between atoms: _332  and  _333
REMARK  136  A    between atoms: _332  and  _335
REMARK  137  A    between atoms: _335  and  _336
REMARK  138  A    between atoms: _339  and  _341
REMARK  139  A    between atoms: _341  and  _342
REMARK  140  A    between atoms: _341  and  _344
REMARK  141  A    between atoms: _344  and  _345
REMARK  142  A    between atoms: _345  and  _346
REMARK  143  A    between atoms: _349  and  _351
REMARK  144  A    between atoms: _351  and  _352
REMARK  145  A    between atoms: _351  and  _354
REMARK  146  A    between atoms: _354  and  _355
REMARK  147  A    between atoms: _358  and  _360
REMARK  148  A    between atoms: _360  and  _361
REMARK  149  A    between atoms: _360  and  _363
REMARK  150  A    between atoms: _363  and  _364
REMARK  151  A    between atoms: _367  and  _369
REMARK  152  A    between atoms: _369  and  _370
REMARK  153  A    between atoms: _372  and  _374
REMARK  154  A    between atoms: _374  and  _375
REMARK  155  A    between atoms: _374  and  _377
REMARK  156  A    between atoms: _380  and  _382
REMARK  157  A    between atoms: _382  and  _383
REMARK  158  A    between atoms: _382  and  _385
REMARK  159  A    between atoms: _385  and  _386
REMARK  160  A    between atoms: _388  and  _390
REMARK  161  A    between atoms: _390  and  _391
REMARK  162  A    between atoms: _390  and  _393
REMARK  163  A    between atoms: _393  and  _394
REMARK  164  A    between atoms: _394  and  _395
REMARK  165  A    between atoms: _397  and  _399
REMARK  166  A    between atoms: _399  and  _400
REMARK  167  A    between atoms: _399  and  _402
REMARK  168  A    between atoms: _402  and  _403
REMARK  169  A    between atoms: _408  and  _409
REMARK  170  A    between atoms: _411  and  _413
REMARK  171  A    between atoms: _413  and  _414
REMARK  172  A    between atoms: _413  and  _416
REMARK  173  A    between atoms: _416  and  _417
REMARK  174  A    between atoms: _420  and  _422
REMARK  175  A    between atoms: _422  and  _423
REMARK  176  A    between atoms: _422  and  _425
REMARK  177  A    between atoms: _425  and  _426
REMARK  178  A    between atoms: _428  and  _430
REMARK  179  A    between atoms: _430  and  _431
REMARK  180  A    between atoms: _430  and  _433
REMARK  181  A    between atoms: _433  and  _434
REMARK  182  A    between atoms: _437  and  _439
REMARK  183  A    between atoms: _439  and  _440
REMARK  184  A    between atoms: _439  and  _442
REMARK  185  A    between atoms: _442  and  _443
REMARK  186  A    between atoms: _448  and  _449
REMARK  187  A    between atoms: _451  and  _453
REMARK  188  A    between atoms: _453  and  _454
REMARK  189  A    between atoms: _453  and  _456
REMARK  190  A    between atoms: _456  and  _457
REMARK  191  A    between atoms: _459  and  _461
REMARK  192  A    between atoms: _461  and  _462
REMARK  193  A    between atoms: _461  and  _464
REMARK  194  A    between atoms: _464  and  _465
REMARK  195  A    between atoms: _471  and  _473
REMARK  196  A    between atoms: _473  and  _474
REMARK  197  A    between atoms: _473  and  _476
REMARK  198  A    between atoms: _476  and  _477
REMARK  199  A    between atoms: _477  and  _478
REMARK  200  A    between atoms: _478  and  _479
REMARK  201  A    between atoms: _488  and  _490
REMARK  202  A    between atoms: _490  and  _491
REMARK  203  A    between atoms: _490  and  _493
REMARK  204  A    between atoms: _496  and  _498
REMARK  205  A    between atoms: _498  and  _499
REMARK  206  A    between atoms: _501  and  _503
REMARK  207  A    between atoms: _503  and  _504
REMARK  208  A    between atoms: _503  and  _506
REMARK  209  A    between atoms: _506  and  _507
REMARK  210  A    between atoms: _510  and  _512
REMARK  211  A    between atoms: _512  and  _513
REMARK  212  A    between atoms: _512  and  _515
REMARK  213  A    between atoms: _515  and  _516
REMARK  214  A    between atoms: _516  and  _517
REMARK  215  A    between atoms: _519  and  _521
REMARK  216  A    between atoms: _521  and  _522
REMARK  217  A    between atoms: _521  and  _524
REMARK  218  A    between atoms: _524  and  _525
REMARK  219  A    between atoms: _531  and  _533
REMARK  220  A    between atoms: _533  and  _534
REMARK  221  A    between atoms: _533  and  _536
REMARK  222  A    between atoms: _536  and  _537
REMARK  223  A    between atoms: _542  and  _544
REMARK  224  A    between atoms: _544  and  _545
REMARK  225  A    between atoms: _544  and  _547
REMARK  226  A    between atoms: _547  and  _548
REMARK  227  A    between atoms: _558  and  _560
REMARK  228  A    between atoms: _560  and  _561
REMARK  229  A    between atoms: _560  and  _563
REMARK  230  A    between atoms: _566  and  _568
REMARK  231  A    between atoms: _568  and  _569
REMARK  232  A    between atoms: _568  and  _571
REMARK  233  A    between atoms: _571  and  _572
REMARK  234  A    between atoms: _575  and  _577
REMARK  235  A    between atoms: _577  and  _578
REMARK  236  A    between atoms: _577  and  _580
REMARK  237  A    between atoms: _580  and  _581
REMARK  238  A    between atoms: _581  and  _582
REMARK  239  A    between atoms: _584  and  _586
REMARK  240  A    between atoms: _586  and  _587
REMARK  241  A    between atoms: _586  and  _589
REMARK  242  A    between atoms: _589  and  _590
REMARK  243  A    between atoms: _593  and  _595
REMARK  244  A    between atoms: _595  and  _596
REMARK  245  A    between atoms: _595  and  _598
REMARK  246  A    between atoms: _598  and  _599
REMARK  247  A    between atoms: _602  and  _604
REMARK  248  A    between atoms: _604  and  _605
REMARK  249  A    between atoms: _607  and  _609
REMARK  250  A    between atoms: _609  and  _610
REMARK  251  A    between atoms: _609  and  _612
REMARK  252  A    between atoms: _612  and  _613
REMARK  253  A    between atoms: _615  and  _617
REMARK  254  A    between atoms: _617  and  _618
REMARK  255  A    between atoms: _617  and  _620
REMARK  256  A    between atoms: _620  and  _621
REMARK  257  A    between atoms: _631  and  _633
REMARK  258  A    between atoms: _633  and  _634
REMARK  259  A    between atoms: _633  and  _636
REMARK  260  A    between atoms: _636  and  _637
REMARK  261  A    between atoms: _639  and  _641
REMARK  262  A    between atoms: _641  and  _642
REMARK  263  A    between atoms: _641  and  _644
REMARK  264  A    between atoms: _644  and  _645
REMARK  265  A    between atoms: _648  and  _650
REMARK  266  A    between atoms: _650  and  _651
REMARK  267  A    between atoms: _654  and  _656
REMARK  268  A    between atoms: _656  and  _657
REMARK  269  A    between atoms: _656  and  _659
REMARK  270  A    between atoms: _659  and  _660
REMARK  271  A    between atoms: _662  and  _664
REMARK  272  A    between atoms: _664  and  _665
REMARK  273  A    between atoms: _664  and  _667
REMARK  274  A    between atoms: _667  and  _668
REMARK  275  A    between atoms: _668  and  _669
REMARK  276  A    between atoms: _673  and  _674
REMARK  277  A    between atoms: _679  and  _681
REMARK  278  A    between atoms: _681  and  _682
REMARK  279  A    between atoms: _681  and  _684
REMARK  280  A    between atoms: _684  and  _685
REMARK  281  A    between atoms: _687  and  _689
REMARK  282  A    between atoms: _689  and  _690
REMARK  283  A    between atoms: _689  and  _692
REMARK  284  A    between atoms: _692  and  _693
REMARK  285  A    between atoms: _693  and  _694
REMARK  286  A    between atoms: _699  and  _701
REMARK  287  A    between atoms: _701  and  _702
REMARK  288  A    between atoms: _701  and  _704
REMARK  289  A    between atoms: _704  and  _705
REMARK  290  A    between atoms: _705  and  _706
REMARK  291  A    between atoms: _711  and  _713
REMARK  292  A    between atoms: _713  and  _714
REMARK  293  A    between atoms: _713  and  _716
REMARK  294  A    between atoms: _716  and  _717
REMARK  295  A    between atoms: _720  and  _722
REMARK  296  A    between atoms: _722  and  _723
REMARK  297  A    between atoms: _722  and  _725
REMARK  298  A    between atoms: _725  and  _726
REMARK  299  A    between atoms: _729  and  _731
REMARK  300  A    between atoms: _731  and  _732
REMARK  301  A    between atoms: _731  and  _734
REMARK  302  A    between atoms: _734  and  _735
REMARK  303  A    between atoms: _741  and  _743
REMARK  304  A    between atoms: _743  and  _744
REMARK  305  A    between atoms: _743  and  _746
REMARK  306  A    between atoms: _746  and  _747
REMARK  307  A    between atoms: _752  and  _753
REMARK  308  A    between atoms: _755  and  _757
REMARK  309  A    between atoms: _757  and  _758
REMARK  310  A    between atoms: _757  and  _760
REMARK  311  A    between atoms: _760  and  _761
REMARK  312  A    between atoms: _767  and  _769
REMARK  313  A    between atoms: _769  and  _770
REMARK  314  A    between atoms: _769  and  _772
REMARK  315  A    between atoms: _772  and  _773
REMARK  316  A    between atoms: _778  and  _780
REMARK  317  A    between atoms: _780  and  _781
REMARK  318  A    between atoms: _780  and  _783
REMARK  319  A    between atoms: _783  and  _784
REMARK  320  A    between atoms: _784  and  _785
REMARK                            x       y       z     vdW  Elec       q    Type
REMARK                         _______ _______ _______ _____ _____    ______ ____
ROOT
ATOM      1  O   HOH     1      18.769  52.881  30.507  0.00  0.00    +0.000 OA
ENDROOT
TORSDOF 0
REMARK  Name = ../refined-set-2016/3drf/3drf_pocket.pdb
REMARK  320 active torsions:
REMARK  status: ('A' for Active; 'I' for Inactive)
REMARK    1  A    between atoms: _1  and  _3
REMARK    2  A    between atoms: _3  and  _4
REMARK    3  A    between atoms: _3  and  _6
REMARK    4  A    between atoms: _6  and  _7
REMARK    5  A    between atoms: _12  and  _13
REMARK    6  A    between atoms: _15  and  _17
REMARK    7  A    between atoms: _17  and  _18
REMARK    8  A    between atoms: _17  and  _20
REMARK    9  A    between atoms: _20  and  _21
REMARK   10  A    between atoms: _21  and  _22
REMARK   11  A    between atoms: _27  and  _29
REMARK   12  A    between atoms: _29  and  _30
REMARK   13  A    between atoms: _29  and  _32
REMARK   14  A    between atoms: _32  and  _33
REMARK   15  A    between atoms: _35  and  _37
REMARK   16  A    between atoms: _37  and  _38
REMARK   17  A    between atoms: _37  and  _40
REMARK   18  A    between atoms: _40  and  _41
REMARK   19  A    between atoms: _44  and  _46
REMARK   20  A    between atoms: _46  and  _47
REMARK   21  A    between atoms: _46  and  _49
REMARK   22  A    between atoms: _49  and  _50
REMARK   23  A    between atoms: _52  and  _54
REMARK   24  A    between atoms: _54  and  _55
REMARK   25  A    between atoms: _54  and  _57
REMARK   26  A    between atoms: _57  and  _58
REMARK   27  A    between atoms: _60  and  _62
REMARK   28  A    between atoms: _62  and  _63
REMARK   29  A    between atoms: _65  and  _67
REMARK   30  A    between atoms: _67  and  _68
REMARK   31  A    between atoms: _67  and  _70
REMARK   32  A    between atoms: _70  and  _71
REMARK   33  A    between atoms: _73  and  _75
REMARK   34  A    between atoms: _75  and  _76
REMARK   35  A    between atoms: _75  and  _78
REMARK   36  A    between atoms: _78  and  _79
REMARK   37  A    between atoms: _84  and  _86
REMARK   38  A    between atoms: _86  and  _87
REMARK   39  A    between atoms: _86  and  _89
REMARK   40  A    between atoms: _89  and  _90
REMARK   41  A    between atoms: _93  and  _95
REMARK   42  A    between atoms: _95  and  _96
REMARK   43  A    between atoms: _99  and  _101
REMARK   44  A    between atoms: _101  and  _102
REMARK   45  A    between atoms: _101  and  _104
REMARK   46  A    between atoms: _104  and  _105
REMARK   47  A    between atoms: _108  and  _110
REMARK   48  A    between atoms: _110  and  _111
REMARK   49  A    between atoms: _110  and  _113
REMARK   50  A    between atoms: _113  and  _114
REMARK   51  A    between atoms: _120  and  _122
REMARK   52  A    between atoms: _122  and  _123
REMARK   53  A    between atoms: _126  and  _128
REMARK   54  A    between atoms: _128  and  _129
REMARK   55  A    between atoms: _128  and  _131
REMARK   56  A    between atoms: _131  and  _132
REMARK   57  A    between atoms: _135  and  _137
REMARK   58  A    between atoms: _137  and  _138
REMARK   59  A    between atoms: _140  and  _142
REMARK   60  A    between atoms: _142  and  _143
REMARK   61  A    between atoms: _142  and  _145
REMARK   62  A    between atoms: _145  and  _146
REMARK   63  A    between atoms: _146  and  _147
REMARK   64  A    between atoms: _152  and  _154
REMARK   65  A    between atoms: _154  and  _155
REMARK   66  A    between atoms: _157  and  _159
REMARK   67  A    between atoms: _159  and  _160
REMARK   68  A    between atoms: _159  and  _162
REMARK   69  A    between atoms: _162  and  _163
REMARK   70  A    between atoms: _166  and  _168
REMARK   71  A    between atoms: _168  and  _169
REMARK   72  A    between atoms: _168  and  _171
REMARK   73  A    between atoms: _171  and  _172
REMARK   74  A    between atoms: _178  and  _180
REMARK   75  A    between atoms: _180  and  _181
REMARK   76  A    between atoms: _180  and  _183
REMARK   77  A    between atoms: _183  and  _184
REMARK   78  A    between atoms: _187  and  _189
REMARK   79  A    between atoms: _189  and  _190
REMARK   80  A    between atoms: _189  and  _192
REMARK   81  A    between atoms: _192  and  _193
REMARK   82  A    between atoms: _199  and  _201
REMARK   83  A    between atoms: _201  and  _202
REMARK   84  A    between atoms: _201  and  _204
REMARK   85  A    between atoms: _204  and  _205
REMARK   86  A    between atoms: _211  and  _213
REMARK   87  A    between atoms: _213  and  _214
REMARK   88  A    between atoms: _213  and  _216
REMARK   89  A    between atoms: _216  and  _217
REMARK   90  A    between atoms: _220  and  _222
REMARK   91  A    between atoms: _222  and  _223
REMARK   92  A    between atoms: _222  and  _225
REMARK   93  A    between atoms: _225  and  _226
REMARK   94  A    between atoms: _229  and  _231
REMARK   95  A    between atoms: _231  and  _232
REMARK   96  A    between atoms: _231  and  _234
REMARK   97  A    between atoms: _234  and  _235
REMARK   98  A    between atoms: _235  and  _236
REMARK   99  A    between atoms: _236  and  _237
REMARK  100  A    between atoms: _246  and  _248
REMARK  101  A    between atoms: _248  and  _249
REMARK  102  A    between atoms: _248  and  _251
REMARK  103  A    between atoms: _251  and  _252
REMARK  104  A    between atoms: _255  and  _257
REMARK  105  A    between atoms: _257  and  _258
REMARK  106  A    between atoms: _257  and  _260
REMARK  107  A    between atoms: _260  and  _261
REMARK  108  A    between atoms: _263  and  _265
REMARK  109  A    between atoms: _265  and  _266
REMARK  110  A    between atoms: _265  and  _268
REMARK  111  A    between atoms: _268  and  _269
REMARK  112  A    between atoms: _269  and  _270
REMARK  113  A    between atoms: _275  and  _277
REMARK  114  A    between atoms: _277  and  _278
REMARK  115  A    between atoms: _277  and  _280
REMARK  116  A    between atoms: _280  and  _281
REMARK  117  A    between atoms: _283  and  _285
REMARK  118  A    between atoms: _285  and  _286
REMARK  119  A    between atoms: _288  and  _290
REMARK  120  A    between atoms: _290  and  _291
REMARK  121  A    between atoms: _290  and  _293
REMARK  122  A    between atoms: _293  and  _294
REMARK  123  A    between atoms: _299  and  _301
REMARK  124  A    between atoms: _301  and  _302
REMARK  125  A    between atoms: _304  and  _306
REMARK  126  A    between atoms: _306  and  _307
REMARK  127  A    between atoms: _306  and  _309
REMARK  128  A    between atoms: _309  and  _310
REMARK  129  A    between atoms: _315  and  _316
REMARK  130  A    between atoms: _318  and  _320
REMARK  131  A    between atoms: _320  and  _321
REMARK  132  A    between atoms: _320  and  _323
REMARK  133  A    between atoms: _323  and  _324
REMARK  134  A    between atoms: _330  and  _332
REMARK  135  A    between atoms: _332  and  _333
REMARK  136  A    between atoms: _332  and  _335
REMARK  137  A    between atoms: _335  and  _336
REMARK  138  A    between atoms: _339  and  _341
REMARK  139  A    between atoms: _341  and  _342
REMARK  140  A    between atoms: _341  and  _344
REMARK  141  A    between atoms: _344  and  _345
REMARK  142  A    between atoms: _345  and  _346
REMARK  143  A    between atoms: _349  and  _351
REMARK  144  A    between atoms: _351  and  _352
REMARK  145  A    between atoms: _351  and  _354
REMARK  146  A    between atoms: _354  and  _355
REMARK  147  A    between atoms: _358  and  _360
REMARK  148  A    between atoms: _360  and  _361
REMARK  149  A    between atoms: _360  and  _363
REMARK  150  A    between atoms: _363  and  _364
REMARK  151  A    between atoms: _367  and  _369
REMARK  152  A    between atoms: _369  and  _370
REMARK  153  A    between atoms: _372  and  _374
REMARK  154  A    between atoms: _374  and  _375
REMARK  155  A    between atoms: _374  and  _377
REMARK  156  A    between atoms: _380  and  _382
REMARK  157  A    between atoms: _382  and  _383
REMARK  158  A    between atoms: _382  and  _385
REMARK  159  A    between atoms: _385  and  _386
REMARK  160  A    between atoms: _388  and  _390
REMARK  161  A    between atoms: _390  and  _391
REMARK  162  A    between atoms: _390  and  _393
REMARK  163  A    between atoms: _393  and  _394
REMARK  164  A    between atoms: _394  and  _395
REMARK  165  A    between atoms: _397  and  _399
REMARK  166  A    between atoms: _399  and  _400
REMARK  167  A    between atoms: _399  and  _402
REMARK  168  A    between atoms: _402  and  _403
REMARK  169  A    between atoms: _408  and  _409
REMARK  170  A    between atoms: _411  and  _413
REMARK  171  A    between atoms: _413  and  _414
REMARK  172  A    between atoms: _413  and  _416
REMARK  173  A    between atoms: _416  and  _417
REMARK  174  A    between atoms: _420  and  _422
REMARK  175  A    between atoms: _422  and  _423
REMARK  176  A    between atoms: _422  and  _425
REMARK  177  A    between atoms: _425  and  _426
REMARK  178  A    between atoms: _428  and  _430
REMARK  179  A    between atoms: _430  and  _431
REMARK  180  A    between atoms: _430  and  _433
REMARK  181  A    between atoms: _433  and  _434
REMARK  182  A    between atoms: _437  and  _439
REMARK  183  A    between atoms: _439  and  _440
REMARK  184  A    between atoms: _439  and  _442
REMARK  185  A    between atoms: _442  and  _443
REMARK  186  A    between atoms: _448  and  _449
REMARK  187  A    between atoms: _451  and  _453
REMARK  188  A    between atoms: _453  and  _454
REMARK  189  A    between atoms: _453  and  _456
REMARK  190  A    between atoms: _456  and  _457
REMARK  191  A    between atoms: _459  and  _461
REMARK  192  A    between atoms: _461  and  _462
REMARK  193  A    between atoms: _461  and  _464
REMARK  194  A    between atoms: _464  and  _465
REMARK  195  A    between atoms: _471  and  _473
REMARK  196  A    between atoms: _473  and  _474
REMARK  197  A    between atoms: _473  and  _476
REMARK  198  A    between atoms: _476  and  _477
REMARK  199  A    between atoms: _477  and  _478
REMARK  200  A    between atoms: _478  and  _479
REMARK  201  A    between atoms: _488  and  _490
REMARK  202  A    between atoms: _490  and  _491
REMARK  203  A    between atoms: _490  and  _493
REMARK  204  A    between atoms: _496  and  _498
REMARK  205  A    between atoms: _498  and  _499
REMARK  206  A    between atoms: _501  and  _503
REMARK  207  A    between atoms: _503  and  _504
REMARK  208  A    between atoms: _503  and  _506
REMARK  209  A    between atoms: _506  and  _507
REMARK  210  A    between atoms: _510  and  _512
REMARK  211  A    between atoms: _512  and  _513
REMARK  212  A    between atoms: _512  and  _515
REMARK  213  A    between atoms: _515  and  _516
REMARK  214  A    between atoms: _516  and  _517
REMARK  215  A    between atoms: _519  and  _521
REMARK  216  A    between atoms: _521  and  _522
REMARK  217  A    between atoms: _521  and  _524
REMARK  218  A    between atoms: _524  and  _525
REMARK  219  A    between atoms: _531  and  _533
REMARK  220  A    between atoms: _533  and  _534
REMARK  221  A    between atoms: _533  and  _536
REMARK  222  A    between atoms: _536  and  _537
REMARK  223  A    between atoms: _542  and  _544
REMARK  224  A    between atoms: _544  and  _545
REMARK  225  A    between atoms: _544  and  _547
REMARK  226  A    between atoms: _547  and  _548
REMARK  227  A    between atoms: _558  and  _560
REMARK  228  A    between atoms: _560  and  _561
REMARK  229  A    between atoms: _560  and  _563
REMARK  230  A    between atoms: _566  and  _568
REMARK  231  A    between atoms: _568  and  _569
REMARK  232  A    between atoms: _568  and  _571
REMARK  233  A    between atoms: _571  and  _572
REMARK  234  A    between atoms: _575  and  _577
REMARK  235  A    between atoms: _577  and  _578
REMARK  236  A    between atoms: _577  and  _580
REMARK  237  A    between atoms: _580  and  _581
REMARK  238  A    between atoms: _581  and  _582
REMARK  239  A    between atoms: _584  and  _586
REMARK  240  A    between atoms: _586  and  _587
REMARK  241  A    between atoms: _586  and  _589
REMARK  242  A    between atoms: _589  and  _590
REMARK  243  A    between atoms: _593  and  _595
REMARK  244  A    between atoms: _595  and  _596
REMARK  245  A    between atoms: _595  and  _598
REMARK  246  A    between atoms: _598  and  _599
REMARK  247  A    between atoms: _602  and  _604
REMARK  248  A    between atoms: _604  and  _605
REMARK  249  A    between atoms: _607  and  _609
REMARK  250  A    between atoms: _609  and  _610
REMARK  251  A    between atoms: _609  and  _612
REMARK  252  A    between atoms: _612  and  _613
REMARK  253  A    between atoms: _615  and  _617
REMARK  254  A    between atoms: _617  and  _618
REMARK  255  A    between atoms: _617  and  _620
REMARK  256  A    between atoms: _620  and  _621
REMARK  257  A    between atoms: _631  and  _633
REMARK  258  A    between atoms: _633  and  _634
REMARK  259  A    between atoms: _633  and  _636
REMARK  260  A    between atoms: _636  and  _637
REMARK  261  A    between atoms: _639  and  _641
REMARK  262  A    between atoms: _641  and  _642
REMARK  263  A    between atoms: _641  and  _644
REMARK  264  A    between atoms: _644  and  _645
REMARK  265  A    between atoms: _648  and  _650
REMARK  266  A    between atoms: _650  and  _651
REMARK  267  A    between atoms: _654  and  _656
REMARK  268  A    between atoms: _656  and  _657
REMARK  269  A    between atoms: _656  and  _659
REMARK  270  A    between atoms: _659  and  _660
REMARK  271  A    between atoms: _662  and  _664
REMARK  272  A    between atoms: _664  and  _665
REMARK  273  A    between atoms: _664  and  _667
REMARK  274  A    between atoms: _667  and  _668
REMARK  275  A    between atoms: _668  and  _669
REMARK  276  A    between atoms: _673  and  _674
REMARK  277  A    between atoms: _679  and  _681
REMARK  278  A    between atoms: _681  and  _682
REMARK  279  A    between atoms: _681  and  _684
REMARK  280  A    between atoms: _684  and  _685
REMARK  281  A    between atoms: _687  and  _689
REMARK  282  A    between atoms: _689  and  _690
REMARK  283  A    between atoms: _689  and  _692
REMARK  284  A    between atoms: _692  and  _693
REMARK  285  A    between atoms: _693  and  _694
REMARK  286  A    between atoms: _699  and  _701
REMARK  287  A    between atoms: _701  and  _702
REMARK  288  A    between atoms: _701  and  _704
REMARK  289  A    between atoms: _704  and  _705
REMARK  290  A    between atoms: _705  and  _706
REMARK  291  A    between atoms: _711  and  _713
REMARK  292  A    between atoms: _713  and  _714
REMARK  293  A    between atoms: _713  and  _716
REMARK  294  A    between atoms: _716  and  _717
REMARK  295  A    between atoms: _720  and  _722
REMARK  296  A    between atoms: _722  and  _723
REMARK  297  A    between atoms: _722  and  _725
REMARK  298  A    between atoms: _725  and  _726
REMARK  299  A    between atoms: _729  and  _731
REMARK  300  A    between atoms: _731  and  _732
REMARK  301  A    between atoms: _731  and  _734
REMARK  302  A    between atoms: _734  and  _735
REMARK  303  A    between atoms: _741  and  _743
REMARK  304  A    between atoms: _743  and  _744
REMARK  305  A    between atoms: _743  and  _746
REMARK  306  A    between atoms: _746  and  _747
REMARK  307  A    between atoms: _752  and  _753
REMARK  308  A    between atoms: _755  and  _757
REMARK  309  A    between atoms: _757  and  _758
REMARK  310  A    between atoms: _757  and  _760
REMARK  311  A    between atoms: _760  and  _761
REMARK  312  A    between atoms: _767  and  _769
REMARK  313  A    between atoms: _769  and  _770
REMARK  314  A    between atoms: _769  and  _772
REMARK  315  A    between atoms: _772  and  _773
REMARK  316  A    between atoms: _778  and  _780
REMARK  317  A    between atoms: _780  and  _781
REMARK  318  A    between atoms: _780  and  _783
REMARK  319  A    between atoms: _783  and  _784
REMARK  320  A    between atoms: _784  and  _785
REMARK                            x       y       z     vdW  Elec       q    Type
REMARK                         _______ _______ _______ _____ _____    ______ ____
ROOT
ATOM      1  O   HOH     1      13.935  41.965  32.519  0.00  0.00    +0.000 OA
ENDROOT
TORSDOF 0
REMARK  Name = ../refined-set-2016/3drf/3drf_pocket.pdb
REMARK  320 active torsions:
REMARK  status: ('A' for Active; 'I' for Inactive)
REMARK    1  A    between atoms: _1  and  _3
REMARK    2  A    between atoms: _3  and  _4
REMARK    3  A    between atoms: _3  and  _6
REMARK    4  A    between atoms: _6  and  _7
REMARK    5  A    between atoms: _12  and  _13
REMARK    6  A    between atoms: _15  and  _17
REMARK    7  A    between atoms: _17  and  _18
REMARK    8  A    between atoms: _17  and  _20
REMARK    9  A    between atoms: _20  and  _21
REMARK   10  A    between atoms: _21  and  _22
REMARK   11  A    between atoms: _27  and  _29
REMARK   12  A    between atoms: _29  and  _30
REMARK   13  A    between atoms: _29  and  _32
REMARK   14  A    between atoms: _32  and  _33
REMARK   15  A    between atoms: _35  and  _37
REMARK   16  A    between atoms: _37  and  _38
REMARK   17  A    between atoms: _37  and  _40
REMARK   18  A    between atoms: _40  and  _41
REMARK   19  A    between atoms: _44  and  _46
REMARK   20  A    between atoms: _46  and  _47
REMARK   21  A    between atoms: _46  and  _49
REMARK   22  A    between atoms: _49  and  _50
REMARK   23  A    between atoms: _52  and  _54
REMARK   24  A    between atoms: _54  and  _55
REMARK   25  A    between atoms: _54  and  _57
REMARK   26  A    between atoms: _57  and  _58
REMARK   27  A    between atoms: _60  and  _62
REMARK   28  A    between atoms: _62  and  _63
REMARK   29  A    between atoms: _65  and  _67
REMARK   30  A    between atoms: _67  and  _68
REMARK   31  A    between atoms: _67  and  _70
REMARK   32  A    between atoms: _70  and  _71
REMARK   33  A    between atoms: _73  and  _75
REMARK   34  A    between atoms: _75  and  _76
REMARK   35  A    between atoms: _75  and  _78
REMARK   36  A    between atoms: _78  and  _79
REMARK   37  A    between atoms: _84  and  _86
REMARK   38  A    between atoms: _86  and  _87
REMARK   39  A    between atoms: _86  and  _89
REMARK   40  A    between atoms: _89  and  _90
REMARK   41  A    between atoms: _93  and  _95
REMARK   42  A    between atoms: _95  and  _96
REMARK   43  A    between atoms: _99  and  _101
REMARK   44  A    between atoms: _101  and  _102
REMARK   45  A    between atoms: _101  and  _104
REMARK   46  A    between atoms: _104  and  _105
REMARK   47  A    between atoms: _108  and  _110
REMARK   48  A    between atoms: _110  and  _111
REMARK   49  A    between atoms: _110  and  _113
REMARK   50  A    between atoms: _113  and  _114
REMARK   51  A    between atoms: _120  and  _122
REMARK   52  A    between atoms: _122  and  _123
REMARK   53  A    between atoms: _126  and  _128
REMARK   54  A    between atoms: _128  and  _129
REMARK   55  A    between atoms: _128  and  _131
REMARK   56  A    between atoms: _131  and  _132
REMARK   57  A    between atoms: _135  and  _137
REMARK   58  A    between atoms: _137  and  _138
REMARK   59  A    between atoms: _140  and  _142
REMARK   60  A    between atoms: _142  and  _143
REMARK   61  A    between atoms: _142  and  _145
REMARK   62  A    between atoms: _145  and  _146
REMARK   63  A    between atoms: _146  and  _147
REMARK   64  A    between atoms: _152  and  _154
REMARK   65  A    between atoms: _154  and  _155
REMARK   66  A    between atoms: _157  and  _159
REMARK   67  A    between atoms: _159  and  _160
REMARK   68  A    between atoms: _159  and  _162
REMARK   69  A    between atoms: _162  and  _163
REMARK   70  A    between atoms: _166  and  _168
REMARK   71  A    between atoms: _168  and  _169
REMARK   72  A    between atoms: _168  and  _171
REMARK   73  A    between atoms: _171  and  _172
REMARK   74  A    between atoms: _178  and  _180
REMARK   75  A    between atoms: _180  and  _181
REMARK   76  A    between atoms: _180  and  _183
REMARK   77  A    between atoms: _183  and  _184
REMARK   78  A    between atoms: _187  and  _189
REMARK   79  A    between atoms: _189  and  _190
REMARK   80  A    between atoms: _189  and  _192
REMARK   81  A    between atoms: _192  and  _193
REMARK   82  A    between atoms: _199  and  _201
REMARK   83  A    between atoms: _201  and  _202
REMARK   84  A    between atoms: _201  and  _204
REMARK   85  A    between atoms: _204  and  _205
REMARK   86  A    between atoms: _211  and  _213
REMARK   87  A    between atoms: _213  and  _214
REMARK   88  A    between atoms: _213  and  _216
REMARK   89  A    between atoms: _216  and  _217
REMARK   90  A    between atoms: _220  and  _222
REMARK   91  A    between atoms: _222  and  _223
REMARK   92  A    between atoms: _222  and  _225
REMARK   93  A    between atoms: _225  and  _226
REMARK   94  A    between atoms: _229  and  _231
REMARK   95  A    between atoms: _231  and  _232
REMARK   96  A    between atoms: _231  and  _234
REMARK   97  A    between atoms: _234  and  _235
REMARK   98  A    between atoms: _235  and  _236
REMARK   99  A    between atoms: _236  and  _237
REMARK  100  A    between atoms: _246  and  _248
REMARK  101  A    between atoms: _248  and  _249
REMARK  102  A    between atoms: _248  and  _251
REMARK  103  A    between atoms: _251  and  _252
REMARK  104  A    between atoms: _255  and  _257
REMARK  105  A    between atoms: _257  and  _258
REMARK  106  A    between atoms: _257  and  _260
REMARK  107  A    between atoms: _260  and  _261
REMARK  108  A    between atoms: _263  and  _265
REMARK  109  A    between atoms: _265  and  _266
REMARK  110  A    between atoms: _265  and  _268
REMARK  111  A    between atoms: _268  and  _269
REMARK  112  A    between atoms: _269  and  _270
REMARK  113  A    between atoms: _275  and  _277
REMARK  114  A    between atoms: _277  and  _278
REMARK  115  A    between atoms: _277  and  _280
REMARK  116  A    between atoms: _280  and  _281
REMARK  117  A    between atoms: _283  and  _285
REMARK  118  A    between atoms: _285  and  _286
REMARK  119  A    between atoms: _288  and  _290
REMARK  120  A    between atoms: _290  and  _291
REMARK  121  A    between atoms: _290  and  _293
REMARK  122  A    between atoms: _293  and  _294
REMARK  123  A    between atoms: _299  and  _301
REMARK  124  A    between atoms: _301  and  _302
REMARK  125  A    between atoms: _304  and  _306
REMARK  126  A    between atoms: _306  and  _307
REMARK  127  A    between atoms: _306  and  _309
REMARK  128  A    between atoms: _309  and  _310
REMARK  129  A    between atoms: _315  and  _316
REMARK  130  A    between atoms: _318  and  _320
REMARK  131  A    between atoms: _320  and  _321
REMARK  132  A    between atoms: _320  and  _323
REMARK  133  A    between atoms: _323  and  _324
REMARK  134  A    between atoms: _330  and  _332
REMARK  135  A    between atoms: _332  and  _333
REMARK  136  A    between atoms: _332  and  _335
REMARK  137  A    between atoms: _335  and  _336
REMARK  138  A    between atoms: _339  and  _341
REMARK  139  A    between atoms: _341  and  _342
REMARK  140  A    between atoms: _341  and  _344
REMARK  141  A    between atoms: _344  and  _345
REMARK  142  A    between atoms: _345  and  _346
REMARK  143  A    between atoms: _349  and  _351
REMARK  144  A    between atoms: _351  and  _352
REMARK  145  A    between atoms: _351  and  _354
REMARK  146  A    between atoms: _354  and  _355
REMARK  147  A    between atoms: _358  and  _360
REMARK  148  A    between atoms: _360  and  _361
REMARK  149  A    between atoms: _360  and  _363
REMARK  150  A    between atoms: _363  and  _364
REMARK  151  A    between atoms: _367  and  _369
REMARK  152  A    between atoms: _369  and  _370
REMARK  153  A    between atoms: _372  and  _374
REMARK  154  A    between atoms: _374  and  _375
REMARK  155  A    between atoms: _374  and  _377
REMARK  156  A    between atoms: _380  and  _382
REMARK  157  A    between atoms: _382  and  _383
REMARK  158  A    between atoms: _382  and  _385
REMARK  159  A    between atoms: _385  and  _386
REMARK  160  A    between atoms: _388  and  _390
REMARK  161  A    between atoms: _390  and  _391
REMARK  162  A    between atoms: _390  and  _393
REMARK  163  A    between atoms: _393  and  _394
REMARK  164  A    between atoms: _394  and  _395
REMARK  165  A    between atoms: _397  and  _399
REMARK  166  A    between atoms: _399  and  _400
REMARK  167  A    between atoms: _399  and  _402
REMARK  168  A    between atoms: _402  and  _403
REMARK  169  A    between atoms: _408  and  _409
REMARK  170  A    between atoms: _411  and  _413
REMARK  171  A    between atoms: _413  and  _414
REMARK  172  A    between atoms: _413  and  _416
REMARK  173  A    between atoms: _416  and  _417
REMARK  174  A    between atoms: _420  and  _422
REMARK  175  A    between atoms: _422  and  _423
REMARK  176  A    between atoms: _422  and  _425
REMARK  177  A    between atoms: _425  and  _426
REMARK  178  A    between atoms: _428  and  _430
REMARK  179  A    between atoms: _430  and  _431
REMARK  180  A    between atoms: _430  and  _433
REMARK  181  A    between atoms: _433  and  _434
REMARK  182  A    between atoms: _437  and  _439
REMARK  183  A    between atoms: _439  and  _440
REMARK  184  A    between atoms: _439  and  _442
REMARK  185  A    between atoms: _442  and  _443
REMARK  186  A    between atoms: _448  and  _449
REMARK  187  A    between atoms: _451  and  _453
REMARK  188  A    between atoms: _453  and  _454
REMARK  189  A    between atoms: _453  and  _456
REMARK  190  A    between atoms: _456  and  _457
REMARK  191  A    between atoms: _459  and  _461
REMARK  192  A    between atoms: _461  and  _462
REMARK  193  A    between atoms: _461  and  _464
REMARK  194  A    between atoms: _464  and  _465
REMARK  195  A    between atoms: _471  and  _473
REMARK  196  A    between atoms: _473  and  _474
REMARK  197  A    between atoms: _473  and  _476
REMARK  198  A    between atoms: _476  and  _477
REMARK  199  A    between atoms: _477  and  _478
REMARK  200  A    between atoms: _478  and  _479
REMARK  201  A    between atoms: _488  and  _490
REMARK  202  A    between atoms: _490  and  _491
REMARK  203  A    between atoms: _490  and  _493
REMARK  204  A    between atoms: _496  and  _498
REMARK  205  A    between atoms: _498  and  _499
REMARK  206  A    between atoms: _501  and  _503
REMARK  207  A    between atoms: _503  and  _504
REMARK  208  A    between atoms: _503  and  _506
REMARK  209  A    between atoms: _506  and  _507
REMARK  210  A    between atoms: _510  and  _512
REMARK  211  A    between atoms: _512  and  _513
REMARK  212  A    between atoms: _512  and  _515
REMARK  213  A    between atoms: _515  and  _516
REMARK  214  A    between atoms: _516  and  _517
REMARK  215  A    between atoms: _519  and  _521
REMARK  216  A    between atoms: _521  and  _522
REMARK  217  A    between atoms: _521  and  _524
REMARK  218  A    between atoms: _524  and  _525
REMARK  219  A    between atoms: _531  and  _533
REMARK  220  A    between atoms: _533  and  _534
REMARK  221  A    between atoms: _533  and  _536
REMARK  222  A    between atoms: _536  and  _537
REMARK  223  A    between atoms: _542  and  _544
REMARK  224  A    between atoms: _544  and  _545
REMARK  225  A    between atoms: _544  and  _547
REMARK  226  A    between atoms: _547  and  _548
REMARK  227  A    between atoms: _558  and  _560
REMARK  228  A    between atoms: _560  and  _561
REMARK  229  A    between atoms: _560  and  _563
REMARK  230  A    between atoms: _566  and  _568
REMARK  231  A    between atoms: _568  and  _569
REMARK  232  A    between atoms: _568  and  _571
REMARK  233  A    between atoms: _571  and  _572
REMARK  234  A    between atoms: _575  and  _577
REMARK  235  A    between atoms: _577  and  _578
REMARK  236  A    between atoms: _577  and  _580
REMARK  237  A    between atoms: _580  and  _581
REMARK  238  A    between atoms: _581  and  _582
REMARK  239  A    between atoms: _584  and  _586
REMARK  240  A    between atoms: _586  and  _587
REMARK  241  A    between atoms: _586  and  _589
REMARK  242  A    between atoms: _589  and  _590
REMARK  243  A    between atoms: _593  and  _595
REMARK  244  A    between atoms: _595  and  _596
REMARK  245  A    between atoms: _595  and  _598
REMARK  246  A    between atoms: _598  and  _599
REMARK  247  A    between atoms: _602  and  _604
REMARK  248  A    between atoms: _604  and  _605
REMARK  249  A    between atoms: _607  and  _609
REMARK  250  A    between atoms: _609  and  _610
REMARK  251  A    between atoms: _609  and  _612
REMARK  252  A    between atoms: _612  and  _613
REMARK  253  A    between atoms: _615  and  _617
REMARK  254  A    between atoms: _617  and  _618
REMARK  255  A    between atoms: _617  and  _620
REMARK  256  A    between atoms: _620  and  _621
REMARK  257  A    between atoms: _631  and  _633
REMARK  258  A    between atoms: _633  and  _634
REMARK  259  A    between atoms: _633  and  _636
REMARK  260  A    between atoms: _636  and  _637
REMARK  261  A    between atoms: _639  and  _641
REMARK  262  A    between atoms: _641  and  _642
REMARK  263  A    between atoms: _641  and  _644
REMARK  264  A    between atoms: _644  and  _645
REMARK  265  A    between atoms: _648  and  _650
REMARK  266  A    between atoms: _650  and  _651
REMARK  267  A    between atoms: _654  and  _656
REMARK  268  A    between atoms: _656  and  _657
REMARK  269  A    between atoms: _656  and  _659
REMARK  270  A    between atoms: _659  and  _660
REMARK  271  A    between atoms: _662  and  _664
REMARK  272  A    between atoms: _664  and  _665
REMARK  273  A    between atoms: _664  and  _667
REMARK  274  A    between atoms: _667  and  _668
REMARK  275  A    between atoms: _668  and  _669
REMARK  276  A    between atoms: _673  and  _674
REMARK  277  A    between atoms: _679  and  _681
REMARK  278  A    between atoms: _681  and  _682
REMARK  279  A    between atoms: _681  and  _684
REMARK  280  A    between atoms: _684  and  _685
REMARK  281  A    between atoms: _687  and  _689
REMARK  282  A    between atoms: _689  and  _690
REMARK  283  A    between atoms: _689  and  _692
REMARK  284  A    between atoms: _692  and  _693
REMARK  285  A    between atoms: _693  and  _694
REMARK  286  A    between atoms: _699  and  _701
REMARK  287  A    between atoms: _701  and  _702
REMARK  288  A    between atoms: _701  and  _704
REMARK  289  A    between atoms: _704  and  _705
REMARK  290  A    between atoms: _705  and  _706
REMARK  291  A    between atoms: _711  and  _713
REMARK  292  A    between atoms: _713  and  _714
REMARK  293  A    between atoms: _713  and  _716
REMARK  294  A    between atoms: _716  and  _717
REMARK  295  A    between atoms: _720  and  _722
REMARK  296  A    between atoms: _722  and  _723
REMARK  297  A    between atoms: _722  and  _725
REMARK  298  A    between atoms: _725  and  _726
REMARK  299  A    between atoms: _729  and  _731
REMARK  300  A    between atoms: _731  and  _732
REMARK  301  A    between atoms: _731  and  _734
REMARK  302  A    between atoms: _734  and  _735
REMARK  303  A    between atoms: _741  and  _743
REMARK  304  A    between atoms: _743  and  _744
REMARK  305  A    between atoms: _743  and  _746
REMARK  306  A    between atoms: _746  and  _747
REMARK  307  A    between atoms: _752  and  _753
REMARK  308  A    between atoms: _755  and  _757
REMARK  309  A    between atoms: _757  and  _758
REMARK  310  A    between atoms: _757  and  _760
REMARK  311  A    between atoms: _760  and  _761
REMARK  312  A    between atoms: _767  and  _769
REMARK  313  A    between atoms: _769  and  _770
REMARK  314  A    between atoms: _769  and  _772
REMARK  315  A    between atoms: _772  and  _773
REMARK  316  A    between atoms: _778  and  _780
REMARK  317  A    between atoms: _780  and  _781
REMARK  318  A    between atoms: _780  and  _783
REMARK  319  A    between atoms: _783  and  _784
REMARK  320  A    between atoms: _784  and  _785
REMARK                            x       y       z     vdW  Elec       q    Type
REMARK                         _______ _______ _______ _____ _____    ______ ____
ROOT
ATOM      1  O   HOH     1      21.400  43.866  17.242  0.00  0.00    +0.000 OA
ENDROOT
TORSDOF 0
REMARK  Name = ../refined-set-2016/3drf/3drf_pocket.pdb
REMARK  320 active torsions:
REMARK  status: ('A' for Active; 'I' for Inactive)
REMARK    1  A    between atoms: _1  and  _3
REMARK    2  A    between atoms: _3  and  _4
REMARK    3  A    between atoms: _3  and  _6
REMARK    4  A    between atoms: _6  and  _7
REMARK    5  A    between atoms: _12  and  _13
REMARK    6  A    between atoms: _15  and  _17
REMARK    7  A    between atoms: _17  and  _18
REMARK    8  A    between atoms: _17  and  _20
REMARK    9  A    between atoms: _20  and  _21
REMARK   10  A    between atoms: _21  and  _22
REMARK   11  A    between atoms: _27  and  _29
REMARK   12  A    between atoms: _29  and  _30
REMARK   13  A    between atoms: _29  and  _32
REMARK   14  A    between atoms: _32  and  _33
REMARK   15  A    between atoms: _35  and  _37
REMARK   16  A    between atoms: _37  and  _38
REMARK   17  A    between atoms: _37  and  _40
REMARK   18  A    between atoms: _40  and  _41
REMARK   19  A    between atoms: _44  and  _46
REMARK   20  A    between atoms: _46  and  _47
REMARK   21  A    between atoms: _46  and  _49
REMARK   22  A    between atoms: _49  and  _50
REMARK   23  A    between atoms: _52  and  _54
REMARK   24  A    between atoms: _54  and  _55
REMARK   25  A    between atoms: _54  and  _57
REMARK   26  A    between atoms: _57  and  _58
REMARK   27  A    between atoms: _60  and  _62
REMARK   28  A    between atoms: _62  and  _63
REMARK   29  A    between atoms: _65  and  _67
REMARK   30  A    between atoms: _67  and  _68
REMARK   31  A    between atoms: _67  and  _70
REMARK   32  A    between atoms: _70  and  _71
REMARK   33  A    between atoms: _73  and  _75
REMARK   34  A    between atoms: _75  and  _76
REMARK   35  A    between atoms: _75  and  _78
REMARK   36  A    between atoms: _78  and  _79
REMARK   37  A    between atoms: _84  and  _86
REMARK   38  A    between atoms: _86  and  _87
REMARK   39  A    between atoms: _86  and  _89
REMARK   40  A    between atoms: _89  and  _90
REMARK   41  A    between atoms: _93  and  _95
REMARK   42  A    between atoms: _95  and  _96
REMARK   43  A    between atoms: _99  and  _101
REMARK   44  A    between atoms: _101  and  _102
REMARK   45  A    between atoms: _101  and  _104
REMARK   46  A    between atoms: _104  and  _105
REMARK   47  A    between atoms: _108  and  _110
REMARK   48  A    between atoms: _110  and  _111
REMARK   49  A    between atoms: _110  and  _113
REMARK   50  A    between atoms: _113  and  _114
REMARK   51  A    between atoms: _120  and  _122
REMARK   52  A    between atoms: _122  and  _123
REMARK   53  A    between atoms: _126  and  _128
REMARK   54  A    between atoms: _128  and  _129
REMARK   55  A    between atoms: _128  and  _131
REMARK   56  A    between atoms: _131  and  _132
REMARK   57  A    between atoms: _135  and  _137
REMARK   58  A    between atoms: _137  and  _138
REMARK   59  A    between atoms: _140  and  _142
REMARK   60  A    between atoms: _142  and  _143
REMARK   61  A    between atoms: _142  and  _145
REMARK   62  A    between atoms: _145  and  _146
REMARK   63  A    between atoms: _146  and  _147
REMARK   64  A    between atoms: _152  and  _154
REMARK   65  A    between atoms: _154  and  _155
REMARK   66  A    between atoms: _157  and  _159
REMARK   67  A    between atoms: _159  and  _160
REMARK   68  A    between atoms: _159  and  _162
REMARK   69  A    between atoms: _162  and  _163
REMARK   70  A    between atoms: _166  and  _168
REMARK   71  A    between atoms: _168  and  _169
REMARK   72  A    between atoms: _168  and  _171
REMARK   73  A    between atoms: _171  and  _172
REMARK   74  A    between atoms: _178  and  _180
REMARK   75  A    between atoms: _180  and  _181
REMARK   76  A    between atoms: _180  and  _183
REMARK   77  A    between atoms: _183  and  _184
REMARK   78  A    between atoms: _187  and  _189
REMARK   79  A    between atoms: _189  and  _190
REMARK   80  A    between atoms: _189  and  _192
REMARK   81  A    between atoms: _192  and  _193
REMARK   82  A    between atoms: _199  and  _201
REMARK   83  A    between atoms: _201  and  _202
REMARK   84  A    between atoms: _201  and  _204
REMARK   85  A    between atoms: _204  and  _205
REMARK   86  A    between atoms: _211  and  _213
REMARK   87  A    between atoms: _213  and  _214
REMARK   88  A    between atoms: _213  and  _216
REMARK   89  A    between atoms: _216  and  _217
REMARK   90  A    between atoms: _220  and  _222
REMARK   91  A    between atoms: _222  and  _223
REMARK   92  A    between atoms: _222  and  _225
REMARK   93  A    between atoms: _225  and  _226
REMARK   94  A    between atoms: _229  and  _231
REMARK   95  A    between atoms: _231  and  _232
REMARK   96  A    between atoms: _231  and  _234
REMARK   97  A    between atoms: _234  and  _235
REMARK   98  A    between atoms: _235  and  _236
REMARK   99  A    between atoms: _236  and  _237
REMARK  100  A    between atoms: _246  and  _248
REMARK  101  A    between atoms: _248  and  _249
REMARK  102  A    between atoms: _248  and  _251
REMARK  103  A    between atoms: _251  and  _252
REMARK  104  A    between atoms: _255  and  _257
REMARK  105  A    between atoms: _257  and  _258
REMARK  106  A    between atoms: _257  and  _260
REMARK  107  A    between atoms: _260  and  _261
REMARK  108  A    between atoms: _263  and  _265
REMARK  109  A    between atoms: _265  and  _266
REMARK  110  A    between atoms: _265  and  _268
REMARK  111  A    between atoms: _268  and  _269
REMARK  112  A    between atoms: _269  and  _270
REMARK  113  A    between atoms: _275  and  _277
REMARK  114  A    between atoms: _277  and  _278
REMARK  115  A    between atoms: _277  and  _280
REMARK  116  A    between atoms: _280  and  _281
REMARK  117  A    between atoms: _283  and  _285
REMARK  118  A    between atoms: _285  and  _286
REMARK  119  A    between atoms: _288  and  _290
REMARK  120  A    between atoms: _290  and  _291
REMARK  121  A    between atoms: _290  and  _293
REMARK  122  A    between atoms: _293  and  _294
REMARK  123  A    between atoms: _299  and  _301
REMARK  124  A    between atoms: _301  and  _302
REMARK  125  A    between atoms: _304  and  _306
REMARK  126  A    between atoms: _306  and  _307
REMARK  127  A    between atoms: _306  and  _309
REMARK  128  A    between atoms: _309  and  _310
REMARK  129  A    between atoms: _315  and  _316
REMARK  130  A    between atoms: _318  and  _320
REMARK  131  A    between atoms: _320  and  _321
REMARK  132  A    between atoms: _320  and  _323
REMARK  133  A    between atoms: _323  and  _324
REMARK  134  A    between atoms: _330  and  _332
REMARK  135  A    between atoms: _332  and  _333
REMARK  136  A    between atoms: _332  and  _335
REMARK  137  A    between atoms: _335  and  _336
REMARK  138  A    between atoms: _339  and  _341
REMARK  139  A    between atoms: _341  and  _342
REMARK  140  A    between atoms: _341  and  _344
REMARK  141  A    between atoms: _344  and  _345
REMARK  142  A    between atoms: _345  and  _346
REMARK  143  A    between atoms: _349  and  _351
REMARK  144  A    between atoms: _351  and  _352
REMARK  145  A    between atoms: _351  and  _354
REMARK  146  A    between atoms: _354  and  _355
REMARK  147  A    between atoms: _358  and  _360
REMARK  148  A    between atoms: _360  and  _361
REMARK  149  A    between atoms: _360  and  _363
REMARK  150  A    between atoms: _363  and  _364
REMARK  151  A    between atoms: _367  and  _369
REMARK  152  A    between atoms: _369  and  _370
REMARK  153  A    between atoms: _372  and  _374
REMARK  154  A    between atoms: _374  and  _375
REMARK  155  A    between atoms: _374  and  _377
REMARK  156  A    between atoms: _380  and  _382
REMARK  157  A    between atoms: _382  and  _383
REMARK  158  A    between atoms: _382  and  _385
REMARK  159  A    between atoms: _385  and  _386
REMARK  160  A    between atoms: _388  and  _390
REMARK  161  A    between atoms: _390  and  _391
REMARK  162  A    between atoms: _390  and  _393
REMARK  163  A    between atoms: _393  and  _394
REMARK  164  A    between atoms: _394  and  _395
REMARK  165  A    between atoms: _397  and  _399
REMARK  166  A    between atoms: _399  and  _400
REMARK  167  A    between atoms: _399  and  _402
REMARK  168  A    between atoms: _402  and  _403
REMARK  169  A    between atoms: _408  and  _409
REMARK  170  A    between atoms: _411  and  _413
REMARK  171  A    between atoms: _413  and  _414
REMARK  172  A    between atoms: _413  and  _416
REMARK  173  A    between atoms: _416  and  _417
REMARK  174  A    between atoms: _420  and  _422
REMARK  175  A    between atoms: _422  and  _423
REMARK  176  A    between atoms: _422  and  _425
REMARK  177  A    between atoms: _425  and  _426
REMARK  178  A    between atoms: _428  and  _430
REMARK  179  A    between atoms: _430  and  _431
REMARK  180  A    between atoms: _430  and  _433
REMARK  181  A    between atoms: _433  and  _434
REMARK  182  A    between atoms: _437  and  _439
REMARK  183  A    between atoms: _439  and  _440
REMARK  184  A    between atoms: _439  and  _442
REMARK  185  A    between atoms: _442  and  _443
REMARK  186  A    between atoms: _448  and  _449
REMARK  187  A    between atoms: _451  and  _453
REMARK  188  A    between atoms: _453  and  _454
REMARK  189  A    between atoms: _453  and  _456
REMARK  190  A    between atoms: _456  and  _457
REMARK  191  A    between atoms: _459  and  _461
REMARK  192  A    between atoms: _461  and  _462
REMARK  193  A    between atoms: _461  and  _464
REMARK  194  A    between atoms: _464  and  _465
REMARK  195  A    between atoms: _471  and  _473
REMARK  196  A    between atoms: _473  and  _474
REMARK  197  A    between atoms: _473  and  _476
REMARK  198  A    between atoms: _476  and  _477
REMARK  199  A    between atoms: _477  and  _478
REMARK  200  A    between atoms: _478  and  _479
REMARK  201  A    between atoms: _488  and  _490
REMARK  202  A    between atoms: _490  and  _491
REMARK  203  A    between atoms: _490  and  _493
REMARK  204  A    between atoms: _496  and  _498
REMARK  205  A    between atoms: _498  and  _499
REMARK  206  A    between atoms: _501  and  _503
REMARK  207  A    between atoms: _503  and  _504
REMARK  208  A    between atoms: _503  and  _506
REMARK  209  A    between atoms: _506  and  _507
REMARK  210  A    between atoms: _510  and  _512
REMARK  211  A    between atoms: _512  and  _513
REMARK  212  A    between atoms: _512  and  _515
REMARK  213  A    between atoms: _515  and  _516
REMARK  214  A    between atoms: _516  and  _517
REMARK  215  A    between atoms: _519  and  _521
REMARK  216  A    between atoms: _521  and  _522
REMARK  217  A    between atoms: _521  and  _524
REMARK  218  A    between atoms: _524  and  _525
REMARK  219  A    between atoms: _531  and  _533
REMARK  220  A    between atoms: _533  and  _534
REMARK  221  A    between atoms: _533  and  _536
REMARK  222  A    between atoms: _536  and  _537
REMARK  223  A    between atoms: _542  and  _544
REMARK  224  A    between atoms: _544  and  _545
REMARK  225  A    between atoms: _544  and  _547
REMARK  226  A    between atoms: _547  and  _548
REMARK  227  A    between atoms: _558  and  _560
REMARK  228  A    between atoms: _560  and  _561
REMARK  229  A    between atoms: _560  and  _563
REMARK  230  A    between atoms: _566  and  _568
REMARK  231  A    between atoms: _568  and  _569
REMARK  232  A    between atoms: _568  and  _571
REMARK  233  A    between atoms: _571  and  _572
REMARK  234  A    between atoms: _575  and  _577
REMARK  235  A    between atoms: _577  and  _578
REMARK  236  A    between atoms: _577  and  _580
REMARK  237  A    between atoms: _580  and  _581
REMARK  238  A    between atoms: _581  and  _582
REMARK  239  A    between atoms: _584  and  _586
REMARK  240  A    between atoms: _586  and  _587
REMARK  241  A    between atoms: _586  and  _589
REMARK  242  A    between atoms: _589  and  _590
REMARK  243  A    between atoms: _593  and  _595
REMARK  244  A    between atoms: _595  and  _596
REMARK  245  A    between atoms: _595  and  _598
REMARK  246  A    between atoms: _598  and  _599
REMARK  247  A    between atoms: _602  and  _604
REMARK  248  A    between atoms: _604  and  _605
REMARK  249  A    between atoms: _607  and  _609
REMARK  250  A    between atoms: _609  and  _610
REMARK  251  A    between atoms: _609  and  _612
REMARK  252  A    between atoms: _612  and  _613
REMARK  253  A    between atoms: _615  and  _617
REMARK  254  A    between atoms: _617  and  _618
REMARK  255  A    between atoms: _617  and  _620
REMARK  256  A    between atoms: _620  and  _621
REMARK  257  A    between atoms: _631  and  _633
REMARK  258  A    between atoms: _633  and  _634
REMARK  259  A    between atoms: _633  and  _636
REMARK  260  A    between atoms: _636  and  _637
REMARK  261  A    between atoms: _639  and  _641
REMARK  262  A    between atoms: _641  and  _642
REMARK  263  A    between atoms: _641  and  _644
REMARK  264  A    between atoms: _644  and  _645
REMARK  265  A    between atoms: _648  and  _650
REMARK  266  A    between atoms: _650  and  _651
REMARK  267  A    between atoms: _654  and  _656
REMARK  268  A    between atoms: _656  and  _657
REMARK  269  A    between atoms: _656  and  _659
REMARK  270  A    between atoms: _659  and  _660
REMARK  271  A    between atoms: _662  and  _664
REMARK  272  A    between atoms: _664  and  _665
REMARK  273  A    between atoms: _664  and  _667
REMARK  274  A    between atoms: _667  and  _668
REMARK  275  A    between atoms: _668  and  _669
REMARK  276  A    between atoms: _673  and  _674
REMARK  277  A    between atoms: _679  and  _681
REMARK  278  A    between atoms: _681  and  _682
REMARK  279  A    between atoms: _681  and  _684
REMARK  280  A    between atoms: _684  and  _685
REMARK  281  A    between atoms: _687  and  _689
REMARK  282  A    between atoms: _689  and  _690
REMARK  283  A    between atoms: _689  and  _692
REMARK  284  A    between atoms: _692  and  _693
REMARK  285  A    between atoms: _693  and  _694
REMARK  286  A    between atoms: _699  and  _701
REMARK  287  A    between atoms: _701  and  _702
REMARK  288  A    between atoms: _701  and  _704
REMARK  289  A    between atoms: _704  and  _705
REMARK  290  A    between atoms: _705  and  _706
REMARK  291  A    between atoms: _711  and  _713
REMARK  292  A    between atoms: _713  and  _714
REMARK  293  A    between atoms: _713  and  _716
REMARK  294  A    between atoms: _716  and  _717
REMARK  295  A    between atoms: _720  and  _722
REMARK  296  A    between atoms: _722  and  _723
REMARK  297  A    between atoms: _722  and  _725
REMARK  298  A    between atoms: _725  and  _726
REMARK  299  A    between atoms: _729  and  _731
REMARK  300  A    between atoms: _731  and  _732
REMARK  301  A    between atoms: _731  and  _734
REMARK  302  A    between atoms: _734  and  _735
REMARK  303  A    between atoms: _741  and  _743
REMARK  304  A    between atoms: _743  and  _744
REMARK  305  A    between atoms: _743  and  _746
REMARK  306  A    between atoms: _746  and  _747
REMARK  307  A    between atoms: _752  and  _753
REMARK  308  A    between atoms: _755  and  _757
REMARK  309  A    between atoms: _757  and  _758
REMARK  310  A    between atoms: _757  and  _760
REMARK  311  A    between atoms: _760  and  _761
REMARK  312  A    between atoms: _767  and  _769
REMARK  313  A    between atoms: _769  and  _770
REMARK  314  A    between atoms: _769  and  _772
REMARK  315  A    between atoms: _772  and  _773
REMARK  316  A    between atoms: _778  and  _780
REMARK  317  A    between atoms: _780  and  _781
REMARK  318  A    between atoms: _780  and  _783
REMARK  319  A    between atoms: _783  and  _784
REMARK  320  A    between atoms: _784  and  _785
REMARK                            x       y       z     vdW  Elec       q    Type
REMARK                         _______ _______ _______ _____ _____    ______ ____
ROOT
ATOM      1  O   HOH     1      22.769  49.941  27.918  0.00  0.00    +0.000 OA
ENDROOT
TORSDOF 0
REMARK  Name = ../refined-set-2016/3drf/3drf_pocket.pdb
REMARK  320 active torsions:
REMARK  status: ('A' for Active; 'I' for Inactive)
REMARK    1  A    between atoms: _1  and  _3
REMARK    2  A    between atoms: _3  and  _4
REMARK    3  A    between atoms: _3  and  _6
REMARK    4  A    between atoms: _6  and  _7
REMARK    5  A    between atoms: _12  and  _13
REMARK    6  A    between atoms: _15  and  _17
REMARK    7  A    between atoms: _17  and  _18
REMARK    8  A    between atoms: _17  and  _20
REMARK    9  A    between atoms: _20  and  _21
REMARK   10  A    between atoms: _21  and  _22
REMARK   11  A    between atoms: _27  and  _29
REMARK   12  A    between atoms: _29  and  _30
REMARK   13  A    between atoms: _29  and  _32
REMARK   14  A    between atoms: _32  and  _33
REMARK   15  A    between atoms: _35  and  _37
REMARK   16  A    between atoms: _37  and  _38
REMARK   17  A    between atoms: _37  and  _40
REMARK   18  A    between atoms: _40  and  _41
REMARK   19  A    between atoms: _44  and  _46
REMARK   20  A    between atoms: _46  and  _47
REMARK   21  A    between atoms: _46  and  _49
REMARK   22  A    between atoms: _49  and  _50
REMARK   23  A    between atoms: _52  and  _54
REMARK   24  A    between atoms: _54  and  _55
REMARK   25  A    between atoms: _54  and  _57
REMARK   26  A    between atoms: _57  and  _58
REMARK   27  A    between atoms: _60  and  _62
REMARK   28  A    between atoms: _62  and  _63
REMARK   29  A    between atoms: _65  and  _67
REMARK   30  A    between atoms: _67  and  _68
REMARK   31  A    between atoms: _67  and  _70
REMARK   32  A    between atoms: _70  and  _71
REMARK   33  A    between atoms: _73  and  _75
REMARK   34  A    between atoms: _75  and  _76
REMARK   35  A    between atoms: _75  and  _78
REMARK   36  A    between atoms: _78  and  _79
REMARK   37  A    between atoms: _84  and  _86
REMARK   38  A    between atoms: _86  and  _87
REMARK   39  A    between atoms: _86  and  _89
REMARK   40  A    between atoms: _89  and  _90
REMARK   41  A    between atoms: _93  and  _95
REMARK   42  A    between atoms: _95  and  _96
REMARK   43  A    between atoms: _99  and  _101
REMARK   44  A    between atoms: _101  and  _102
REMARK   45  A    between atoms: _101  and  _104
REMARK   46  A    between atoms: _104  and  _105
REMARK   47  A    between atoms: _108  and  _110
REMARK   48  A    between atoms: _110  and  _111
REMARK   49  A    between atoms: _110  and  _113
REMARK   50  A    between atoms: _113  and  _114
REMARK   51  A    between atoms: _120  and  _122
REMARK   52  A    between atoms: _122  and  _123
REMARK   53  A    between atoms: _126  and  _128
REMARK   54  A    between atoms: _128  and  _129
REMARK   55  A    between atoms: _128  and  _131
REMARK   56  A    between atoms: _131  and  _132
REMARK   57  A    between atoms: _135  and  _137
REMARK   58  A    between atoms: _137  and  _138
REMARK   59  A    between atoms: _140  and  _142
REMARK   60  A    between atoms: _142  and  _143
REMARK   61  A    between atoms: _142  and  _145
REMARK   62  A    between atoms: _145  and  _146
REMARK   63  A    between atoms: _146  and  _147
REMARK   64  A    between atoms: _152  and  _154
REMARK   65  A    between atoms: _154  and  _155
REMARK   66  A    between atoms: _157  and  _159
REMARK   67  A    between atoms: _159  and  _160
REMARK   68  A    between atoms: _159  and  _162
REMARK   69  A    between atoms: _162  and  _163
REMARK   70  A    between atoms: _166  and  _168
REMARK   71  A    between atoms: _168  and  _169
REMARK   72  A    between atoms: _168  and  _171
REMARK   73  A    between atoms: _171  and  _172
REMARK   74  A    between atoms: _178  and  _180
REMARK   75  A    between atoms: _180  and  _181
REMARK   76  A    between atoms: _180  and  _183
REMARK   77  A    between atoms: _183  and  _184
REMARK   78  A    between atoms: _187  and  _189
REMARK   79  A    between atoms: _189  and  _190
REMARK   80  A    between atoms: _189  and  _192
REMARK   81  A    between atoms: _192  and  _193
REMARK   82  A    between atoms: _199  and  _201
REMARK   83  A    between atoms: _201  and  _202
REMARK   84  A    between atoms: _201  and  _204
REMARK   85  A    between atoms: _204  and  _205
REMARK   86  A    between atoms: _211  and  _213
REMARK   87  A    between atoms: _213  and  _214
REMARK   88  A    between atoms: _213  and  _216
REMARK   89  A    between atoms: _216  and  _217
REMARK   90  A    between atoms: _220  and  _222
REMARK   91  A    between atoms: _222  and  _223
REMARK   92  A    between atoms: _222  and  _225
REMARK   93  A    between atoms: _225  and  _226
REMARK   94  A    between atoms: _229  and  _231
REMARK   95  A    between atoms: _231  and  _232
REMARK   96  A    between atoms: _231  and  _234
REMARK   97  A    between atoms: _234  and  _235
REMARK   98  A    between atoms: _235  and  _236
REMARK   99  A    between atoms: _236  and  _237
REMARK  100  A    between atoms: _246  and  _248
REMARK  101  A    between atoms: _248  and  _249
REMARK  102  A    between atoms: _248  and  _251
REMARK  103  A    between atoms: _251  and  _252
REMARK  104  A    between atoms: _255  and  _257
REMARK  105  A    between atoms: _257  and  _258
REMARK  106  A    between atoms: _257  and  _260
REMARK  107  A    between atoms: _260  and  _261
REMARK  108  A    between atoms: _263  and  _265
REMARK  109  A    between atoms: _265  and  _266
REMARK  110  A    between atoms: _265  and  _268
REMARK  111  A    between atoms: _268  and  _269
REMARK  112  A    between atoms: _269  and  _270
REMARK  113  A    between atoms: _275  and  _277
REMARK  114  A    between atoms: _277  and  _278
REMARK  115  A    between atoms: _277  and  _280
REMARK  116  A    between atoms: _280  and  _281
REMARK  117  A    between atoms: _283  and  _285
REMARK  118  A    between atoms: _285  and  _286
REMARK  119  A    between atoms: _288  and  _290
REMARK  120  A    between atoms: _290  and  _291
REMARK  121  A    between atoms: _290  and  _293
REMARK  122  A    between atoms: _293  and  _294
REMARK  123  A    between atoms: _299  and  _301
REMARK  124  A    between atoms: _301  and  _302
REMARK  125  A    between atoms: _304  and  _306
REMARK  126  A    between atoms: _306  and  _307
REMARK  127  A    between atoms: _306  and  _309
REMARK  128  A    between atoms: _309  and  _310
REMARK  129  A    between atoms: _315  and  _316
REMARK  130  A    between atoms: _318  and  _320
REMARK  131  A    between atoms: _320  and  _321
REMARK  132  A    between atoms: _320  and  _323
REMARK  133  A    between atoms: _323  and  _324
REMARK  134  A    between atoms: _330  and  _332
REMARK  135  A    between atoms: _332  and  _333
REMARK  136  A    between atoms: _332  and  _335
REMARK  137  A    between atoms: _335  and  _336
REMARK  138  A    between atoms: _339  and  _341
REMARK  139  A    between atoms: _341  and  _342
REMARK  140  A    between atoms: _341  and  _344
REMARK  141  A    between atoms: _344  and  _345
REMARK  142  A    between atoms: _345  and  _346
REMARK  143  A    between atoms: _349  and  _351
REMARK  144  A    between atoms: _351  and  _352
REMARK  145  A    between atoms: _351  and  _354
REMARK  146  A    between atoms: _354  and  _355
REMARK  147  A    between atoms: _358  and  _360
REMARK  148  A    between atoms: _360  and  _361
REMARK  149  A    between atoms: _360  and  _363
REMARK  150  A    between atoms: _363  and  _364
REMARK  151  A    between atoms: _367  and  _369
REMARK  152  A    between atoms: _369  and  _370
REMARK  153  A    between atoms: _372  and  _374
REMARK  154  A    between atoms: _374  and  _375
REMARK  155  A    between atoms: _374  and  _377
REMARK  156  A    between atoms: _380  and  _382
REMARK  157  A    between atoms: _382  and  _383
REMARK  158  A    between atoms: _382  and  _385
REMARK  159  A    between atoms: _385  and  _386
REMARK  160  A    between atoms: _388  and  _390
REMARK  161  A    between atoms: _390  and  _391
REMARK  162  A    between atoms: _390  and  _393
REMARK  163  A    between atoms: _393  and  _394
REMARK  164  A    between atoms: _394  and  _395
REMARK  165  A    between atoms: _397  and  _399
REMARK  166  A    between atoms: _399  and  _400
REMARK  167  A    between atoms: _399  and  _402
REMARK  168  A    between atoms: _402  and  _403
REMARK  169  A    between atoms: _408  and  _409
REMARK  170  A    between atoms: _411  and  _413
REMARK  171  A    between atoms: _413  and  _414
REMARK  172  A    between atoms: _413  and  _416
REMARK  173  A    between atoms: _416  and  _417
REMARK  174  A    between atoms: _420  and  _422
REMARK  175  A    between atoms: _422  and  _423
REMARK  176  A    between atoms: _422  and  _425
REMARK  177  A    between atoms: _425  and  _426
REMARK  178  A    between atoms: _428  and  _430
REMARK  179  A    between atoms: _430  and  _431
REMARK  180  A    between atoms: _430  and  _433
REMARK  181  A    between atoms: _433  and  _434
REMARK  182  A    between atoms: _437  and  _439
REMARK  183  A    between atoms: _439  and  _440
REMARK  184  A    between atoms: _439  and  _442
REMARK  185  A    between atoms: _442  and  _443
REMARK  186  A    between atoms: _448  and  _449
REMARK  187  A    between atoms: _451  and  _453
REMARK  188  A    between atoms: _453  and  _454
REMARK  189  A    between atoms: _453  and  _456
REMARK  190  A    between atoms: _456  and  _457
REMARK  191  A    between atoms: _459  and  _461
REMARK  192  A    between atoms: _461  and  _462
REMARK  193  A    between atoms: _461  and  _464
REMARK  194  A    between atoms: _464  and  _465
REMARK  195  A    between atoms: _471  and  _473
REMARK  196  A    between atoms: _473  and  _474
REMARK  197  A    between atoms: _473  and  _476
REMARK  198  A    between atoms: _476  and  _477
REMARK  199  A    between atoms: _477  and  _478
REMARK  200  A    between atoms: _478  and  _479
REMARK  201  A    between atoms: _488  and  _490
REMARK  202  A    between atoms: _490  and  _491
REMARK  203  A    between atoms: _490  and  _493
REMARK  204  A    between atoms: _496  and  _498
REMARK  205  A    between atoms: _498  and  _499
REMARK  206  A    between atoms: _501  and  _503
REMARK  207  A    between atoms: _503  and  _504
REMARK  208  A    between atoms: _503  and  _506
REMARK  209  A    between atoms: _506  and  _507
REMARK  210  A    between atoms: _510  and  _512
REMARK  211  A    between atoms: _512  and  _513
REMARK  212  A    between atoms: _512  and  _515
REMARK  213  A    between atoms: _515  and  _516
REMARK  214  A    between atoms: _516  and  _517
REMARK  215  A    between atoms: _519  and  _521
REMARK  216  A    between atoms: _521  and  _522
REMARK  217  A    between atoms: _521  and  _524
REMARK  218  A    between atoms: _524  and  _525
REMARK  219  A    between atoms: _531  and  _533
REMARK  220  A    between atoms: _533  and  _534
REMARK  221  A    between atoms: _533  and  _536
REMARK  222  A    between atoms: _536  and  _537
REMARK  223  A    between atoms: _542  and  _544
REMARK  224  A    between atoms: _544  and  _545
REMARK  225  A    between atoms: _544  and  _547
REMARK  226  A    between atoms: _547  and  _548
REMARK  227  A    between atoms: _558  and  _560
REMARK  228  A    between atoms: _560  and  _561
REMARK  229  A    between atoms: _560  and  _563
REMARK  230  A    between atoms: _566  and  _568
REMARK  231  A    between atoms: _568  and  _569
REMARK  232  A    between atoms: _568  and  _571
REMARK  233  A    between atoms: _571  and  _572
REMARK  234  A    between atoms: _575  and  _577
REMARK  235  A    between atoms: _577  and  _578
REMARK  236  A    between atoms: _577  and  _580
REMARK  237  A    between atoms: _580  and  _581
REMARK  238  A    between atoms: _581  and  _582
REMARK  239  A    between atoms: _584  and  _586
REMARK  240  A    between atoms: _586  and  _587
REMARK  241  A    between atoms: _586  and  _589
REMARK  242  A    between atoms: _589  and  _590
REMARK  243  A    between atoms: _593  and  _595
REMARK  244  A    between atoms: _595  and  _596
REMARK  245  A    between atoms: _595  and  _598
REMARK  246  A    between atoms: _598  and  _599
REMARK  247  A    between atoms: _602  and  _604
REMARK  248  A    between atoms: _604  and  _605
REMARK  249  A    between atoms: _607  and  _609
REMARK  250  A    between atoms: _609  and  _610
REMARK  251  A    between atoms: _609  and  _612
REMARK  252  A    between atoms: _612  and  _613
REMARK  253  A    between atoms: _615  and  _617
REMARK  254  A    between atoms: _617  and  _618
REMARK  255  A    between atoms: _617  and  _620
REMARK  256  A    between atoms: _620  and  _621
REMARK  257  A    between atoms: _631  and  _633
REMARK  258  A    between atoms: _633  and  _634
REMARK  259  A    between atoms: _633  and  _636
REMARK  260  A    between atoms: _636  and  _637
REMARK  261  A    between atoms: _639  and  _641
REMARK  262  A    between atoms: _641  and  _642
REMARK  263  A    between atoms: _641  and  _644
REMARK  264  A    between atoms: _644  and  _645
REMARK  265  A    between atoms: _648  and  _650
REMARK  266  A    between atoms: _650  and  _651
REMARK  267  A    between atoms: _654  and  _656
REMARK  268  A    between atoms: _656  and  _657
REMARK  269  A    between atoms: _656  and  _659
REMARK  270  A    between atoms: _659  and  _660
REMARK  271  A    between atoms: _662  and  _664
REMARK  272  A    between atoms: _664  and  _665
REMARK  273  A    between atoms: _664  and  _667
REMARK  274  A    between atoms: _667  and  _668
REMARK  275  A    between atoms: _668  and  _669
REMARK  276  A    between atoms: _673  and  _674
REMARK  277  A    between atoms: _679  and  _681
REMARK  278  A    between atoms: _681  and  _682
REMARK  279  A    between atoms: _681  and  _684
REMARK  280  A    between atoms: _684  and  _685
REMARK  281  A    between atoms: _687  and  _689
REMARK  282  A    between atoms: _689  and  _690
REMARK  283  A    between atoms: _689  and  _692
REMARK  284  A    between atoms: _692  and  _693
REMARK  285  A    between atoms: _693  and  _694
REMARK  286  A    between atoms: _699  and  _701
REMARK  287  A    between atoms: _701  and  _702
REMARK  288  A    between atoms: _701  and  _704
REMARK  289  A    between atoms: _704  and  _705
REMARK  290  A    between atoms: _705  and  _706
REMARK  291  A    between atoms: _711  and  _713
REMARK  292  A    between atoms: _713  and  _714
REMARK  293  A    between atoms: _713  and  _716
REMARK  294  A    between atoms: _716  and  _717
REMARK  295  A    between atoms: _720  and  _722
REMARK  296  A    between atoms: _722  and  _723
REMARK  297  A    between atoms: _722  and  _725
REMARK  298  A    between atoms: _725  and  _726
REMARK  299  A    between atoms: _729  and  _731
REMARK  300  A    between atoms: _731  and  _732
REMARK  301  A    between atoms: _731  and  _734
REMARK  302  A    between atoms: _734  and  _735
REMARK  303  A    between atoms: _741  and  _743
REMARK  304  A    between atoms: _743  and  _744
REMARK  305  A    between atoms: _743  and  _746
REMARK  306  A    between atoms: _746  and  _747
REMARK  307  A    between atoms: _752  and  _753
REMARK  308  A    between atoms: _755  and  _757
REMARK  309  A    between atoms: _757  and  _758
REMARK  310  A    between atoms: _757  and  _760
REMARK  311  A    between atoms: _760  and  _761
REMARK  312  A    between atoms: _767  and  _769
REMARK  313  A    between atoms: _769  and  _770
REMARK  314  A    between atoms: _769  and  _772
REMARK  315  A    between atoms: _772  and  _773
REMARK  316  A    between atoms: _778  and  _780
REMARK  317  A    between atoms: _780  and  _781
REMARK  318  A    between atoms: _780  and  _783
REMARK  319  A    between atoms: _783  and  _784
REMARK  320  A    between atoms: _784  and  _785
REMARK                            x       y       z     vdW  Elec       q    Type
REMARK                         _______ _______ _______ _____ _____    ______ ____
ROOT
ATOM      1  O   HOH     1       4.337  58.596  20.664  0.00  0.00    +0.000 OA
ENDROOT
TORSDOF 0
REMARK  Name = ../refined-set-2016/3drf/3drf_pocket.pdb
REMARK  320 active torsions:
REMARK  status: ('A' for Active; 'I' for Inactive)
REMARK    1  A    between atoms: _1  and  _3
REMARK    2  A    between atoms: _3  and  _4
REMARK    3  A    between atoms: _3  and  _6
REMARK    4  A    between atoms: _6  and  _7
REMARK    5  A    between atoms: _12  and  _13
REMARK    6  A    between atoms: _15  and  _17
REMARK    7  A    between atoms: _17  and  _18
REMARK    8  A    between atoms: _17  and  _20
REMARK    9  A    between atoms: _20  and  _21
REMARK   10  A    between atoms: _21  and  _22
REMARK   11  A    between atoms: _27  and  _29
REMARK   12  A    between atoms: _29  and  _30
REMARK   13  A    between atoms: _29  and  _32
REMARK   14  A    between atoms: _32  and  _33
REMARK   15  A    between atoms: _35  and  _37
REMARK   16  A    between atoms: _37  and  _38
REMARK   17  A    between atoms: _37  and  _40
REMARK   18  A    between atoms: _40  and  _41
REMARK   19  A    between atoms: _44  and  _46
REMARK   20  A    between atoms: _46  and  _47
REMARK   21  A    between atoms: _46  and  _49
REMARK   22  A    between atoms: _49  and  _50
REMARK   23  A    between atoms: _52  and  _54
REMARK   24  A    between atoms: _54  and  _55
REMARK   25  A    between atoms: _54  and  _57
REMARK   26  A    between atoms: _57  and  _58
REMARK   27  A    between atoms: _60  and  _62
REMARK   28  A    between atoms: _62  and  _63
REMARK   29  A    between atoms: _65  and  _67
REMARK   30  A    between atoms: _67  and  _68
REMARK   31  A    between atoms: _67  and  _70
REMARK   32  A    between atoms: _70  and  _71
REMARK   33  A    between atoms: _73  and  _75
REMARK   34  A    between atoms: _75  and  _76
REMARK   35  A    between atoms: _75  and  _78
REMARK   36  A    between atoms: _78  and  _79
REMARK   37  A    between atoms: _84  and  _86
REMARK   38  A    between atoms: _86  and  _87
REMARK   39  A    between atoms: _86  and  _89
REMARK   40  A    between atoms: _89  and  _90
REMARK   41  A    between atoms: _93  and  _95
REMARK   42  A    between atoms: _95  and  _96
REMARK   43  A    between atoms: _99  and  _101
REMARK   44  A    between atoms: _101  and  _102
REMARK   45  A    between atoms: _101  and  _104
REMARK   46  A    between atoms: _104  and  _105
REMARK   47  A    between atoms: _108  and  _110
REMARK   48  A    between atoms: _110  and  _111
REMARK   49  A    between atoms: _110  and  _113
REMARK   50  A    between atoms: _113  and  _114
REMARK   51  A    between atoms: _120  and  _122
REMARK   52  A    between atoms: _122  and  _123
REMARK   53  A    between atoms: _126  and  _128
REMARK   54  A    between atoms: _128  and  _129
REMARK   55  A    between atoms: _128  and  _131
REMARK   56  A    between atoms: _131  and  _132
REMARK   57  A    between atoms: _135  and  _137
REMARK   58  A    between atoms: _137  and  _138
REMARK   59  A    between atoms: _140  and  _142
REMARK   60  A    between atoms: _142  and  _143
REMARK   61  A    between atoms: _142  and  _145
REMARK   62  A    between atoms: _145  and  _146
REMARK   63  A    between atoms: _146  and  _147
REMARK   64  A    between atoms: _152  and  _154
REMARK   65  A    between atoms: _154  and  _155
REMARK   66  A    between atoms: _157  and  _159
REMARK   67  A    between atoms: _159  and  _160
REMARK   68  A    between atoms: _159  and  _162
REMARK   69  A    between atoms: _162  and  _163
REMARK   70  A    between atoms: _166  and  _168
REMARK   71  A    between atoms: _168  and  _169
REMARK   72  A    between atoms: _168  and  _171
REMARK   73  A    between atoms: _171  and  _172
REMARK   74  A    between atoms: _178  and  _180
REMARK   75  A    between atoms: _180  and  _181
REMARK   76  A    between atoms: _180  and  _183
REMARK   77  A    between atoms: _183  and  _184
REMARK   78  A    between atoms: _187  and  _189
REMARK   79  A    between atoms: _189  and  _190
REMARK   80  A    between atoms: _189  and  _192
REMARK   81  A    between atoms: _192  and  _193
REMARK   82  A    between atoms: _199  and  _201
REMARK   83  A    between atoms: _201  and  _202
REMARK   84  A    between atoms: _201  and  _204
REMARK   85  A    between atoms: _204  and  _205
REMARK   86  A    between atoms: _211  and  _213
REMARK   87  A    between atoms: _213  and  _214
REMARK   88  A    between atoms: _213  and  _216
REMARK   89  A    between atoms: _216  and  _217
REMARK   90  A    between atoms: _220  and  _222
REMARK   91  A    between atoms: _222  and  _223
REMARK   92  A    between atoms: _222  and  _225
REMARK   93  A    between atoms: _225  and  _226
REMARK   94  A    between atoms: _229  and  _231
REMARK   95  A    between atoms: _231  and  _232
REMARK   96  A    between atoms: _231  and  _234
REMARK   97  A    between atoms: _234  and  _235
REMARK   98  A    between atoms: _235  and  _236
REMARK   99  A    between atoms: _236  and  _237
REMARK  100  A    between atoms: _246  and  _248
REMARK  101  A    between atoms: _248  and  _249
REMARK  102  A    between atoms: _248  and  _251
REMARK  103  A    between atoms: _251  and  _252
REMARK  104  A    between atoms: _255  and  _257
REMARK  105  A    between atoms: _257  and  _258
REMARK  106  A    between atoms: _257  and  _260
REMARK  107  A    between atoms: _260  and  _261
REMARK  108  A    between atoms: _263  and  _265
REMARK  109  A    between atoms: _265  and  _266
REMARK  110  A    between atoms: _265  and  _268
REMARK  111  A    between atoms: _268  and  _269
REMARK  112  A    between atoms: _269  and  _270
REMARK  113  A    between atoms: _275  and  _277
REMARK  114  A    between atoms: _277  and  _278
REMARK  115  A    between atoms: _277  and  _280
REMARK  116  A    between atoms: _280  and  _281
REMARK  117  A    between atoms: _283  and  _285
REMARK  118  A    between atoms: _285  and  _286
REMARK  119  A    between atoms: _288  and  _290
REMARK  120  A    between atoms: _290  and  _291
REMARK  121  A    between atoms: _290  and  _293
REMARK  122  A    between atoms: _293  and  _294
REMARK  123  A    between atoms: _299  and  _301
REMARK  124  A    between atoms: _301  and  _302
REMARK  125  A    between atoms: _304  and  _306
REMARK  126  A    between atoms: _306  and  _307
REMARK  127  A    between atoms: _306  and  _309
REMARK  128  A    between atoms: _309  and  _310
REMARK  129  A    between atoms: _315  and  _316
REMARK  130  A    between atoms: _318  and  _320
REMARK  131  A    between atoms: _320  and  _321
REMARK  132  A    between atoms: _320  and  _323
REMARK  133  A    between atoms: _323  and  _324
REMARK  134  A    between atoms: _330  and  _332
REMARK  135  A    between atoms: _332  and  _333
REMARK  136  A    between atoms: _332  and  _335
REMARK  137  A    between atoms: _335  and  _336
REMARK  138  A    between atoms: _339  and  _341
REMARK  139  A    between atoms: _341  and  _342
REMARK  140  A    between atoms: _341  and  _344
REMARK  141  A    between atoms: _344  and  _345
REMARK  142  A    between atoms: _345  and  _346
REMARK  143  A    between atoms: _349  and  _351
REMARK  144  A    between atoms: _351  and  _352
REMARK  145  A    between atoms: _351  and  _354
REMARK  146  A    between atoms: _354  and  _355
REMARK  147  A    between atoms: _358  and  _360
REMARK  148  A    between atoms: _360  and  _361
REMARK  149  A    between atoms: _360  and  _363
REMARK  150  A    between atoms: _363  and  _364
REMARK  151  A    between atoms: _367  and  _369
REMARK  152  A    between atoms: _369  and  _370
REMARK  153  A    between atoms: _372  and  _374
REMARK  154  A    between atoms: _374  and  _375
REMARK  155  A    between atoms: _374  and  _377
REMARK  156  A    between atoms: _380  and  _382
REMARK  157  A    between atoms: _382  and  _383
REMARK  158  A    between atoms: _382  and  _385
REMARK  159  A    between atoms: _385  and  _386
REMARK  160  A    between atoms: _388  and  _390
REMARK  161  A    between atoms: _390  and  _391
REMARK  162  A    between atoms: _390  and  _393
REMARK  163  A    between atoms: _393  and  _394
REMARK  164  A    between atoms: _394  and  _395
REMARK  165  A    between atoms: _397  and  _399
REMARK  166  A    between atoms: _399  and  _400
REMARK  167  A    between atoms: _399  and  _402
REMARK  168  A    between atoms: _402  and  _403
REMARK  169  A    between atoms: _408  and  _409
REMARK  170  A    between atoms: _411  and  _413
REMARK  171  A    between atoms: _413  and  _414
REMARK  172  A    between atoms: _413  and  _416
REMARK  173  A    between atoms: _416  and  _417
REMARK  174  A    between atoms: _420  and  _422
REMARK  175  A    between atoms: _422  and  _423
REMARK  176  A    between atoms: _422  and  _425
REMARK  177  A    between atoms: _425  and  _426
REMARK  178  A    between atoms: _428  and  _430
REMARK  179  A    between atoms: _430  and  _431
REMARK  180  A    between atoms: _430  and  _433
REMARK  181  A    between atoms: _433  and  _434
REMARK  182  A    between atoms: _437  and  _439
REMARK  183  A    between atoms: _439  and  _440
REMARK  184  A    between atoms: _439  and  _442
REMARK  185  A    between atoms: _442  and  _443
REMARK  186  A    between atoms: _448  and  _449
REMARK  187  A    between atoms: _451  and  _453
REMARK  188  A    between atoms: _453  and  _454
REMARK  189  A    between atoms: _453  and  _456
REMARK  190  A    between atoms: _456  and  _457
REMARK  191  A    between atoms: _459  and  _461
REMARK  192  A    between atoms: _461  and  _462
REMARK  193  A    between atoms: _461  and  _464
REMARK  194  A    between atoms: _464  and  _465
REMARK  195  A    between atoms: _471  and  _473
REMARK  196  A    between atoms: _473  and  _474
REMARK  197  A    between atoms: _473  and  _476
REMARK  198  A    between atoms: _476  and  _477
REMARK  199  A    between atoms: _477  and  _478
REMARK  200  A    between atoms: _478  and  _479
REMARK  201  A    between atoms: _488  and  _490
REMARK  202  A    between atoms: _490  and  _491
REMARK  203  A    between atoms: _490  and  _493
REMARK  204  A    between atoms: _496  and  _498
REMARK  205  A    between atoms: _498  and  _499
REMARK  206  A    between atoms: _501  and  _503
REMARK  207  A    between atoms: _503  and  _504
REMARK  208  A    between atoms: _503  and  _506
REMARK  209  A    between atoms: _506  and  _507
REMARK  210  A    between atoms: _510  and  _512
REMARK  211  A    between atoms: _512  and  _513
REMARK  212  A    between atoms: _512  and  _515
REMARK  213  A    between atoms: _515  and  _516
REMARK  214  A    between atoms: _516  and  _517
REMARK  215  A    between atoms: _519  and  _521
REMARK  216  A    between atoms: _521  and  _522
REMARK  217  A    between atoms: _521  and  _524
REMARK  218  A    between atoms: _524  and  _525
REMARK  219  A    between atoms: _531  and  _533
REMARK  220  A    between atoms: _533  and  _534
REMARK  221  A    between atoms: _533  and  _536
REMARK  222  A    between atoms: _536  and  _537
REMARK  223  A    between atoms: _542  and  _544
REMARK  224  A    between atoms: _544  and  _545
REMARK  225  A    between atoms: _544  and  _547
REMARK  226  A    between atoms: _547  and  _548
REMARK  227  A    between atoms: _558  and  _560
REMARK  228  A    between atoms: _560  and  _561
REMARK  229  A    between atoms: _560  and  _563
REMARK  230  A    between atoms: _566  and  _568
REMARK  231  A    between atoms: _568  and  _569
REMARK  232  A    between atoms: _568  and  _571
REMARK  233  A    between atoms: _571  and  _572
REMARK  234  A    between atoms: _575  and  _577
REMARK  235  A    between atoms: _577  and  _578
REMARK  236  A    between atoms: _577  and  _580
REMARK  237  A    between atoms: _580  and  _581
REMARK  238  A    between atoms: _581  and  _582
REMARK  239  A    between atoms: _584  and  _586
REMARK  240  A    between atoms: _586  and  _587
REMARK  241  A    between atoms: _586  and  _589
REMARK  242  A    between atoms: _589  and  _590
REMARK  243  A    between atoms: _593  and  _595
REMARK  244  A    between atoms: _595  and  _596
REMARK  245  A    between atoms: _595  and  _598
REMARK  246  A    between atoms: _598  and  _599
REMARK  247  A    between atoms: _602  and  _604
REMARK  248  A    between atoms: _604  and  _605
REMARK  249  A    between atoms: _607  and  _609
REMARK  250  A    between atoms: _609  and  _610
REMARK  251  A    between atoms: _609  and  _612
REMARK  252  A    between atoms: _612  and  _613
REMARK  253  A    between atoms: _615  and  _617
REMARK  254  A    between atoms: _617  and  _618
REMARK  255  A    between atoms: _617  and  _620
REMARK  256  A    between atoms: _620  and  _621
REMARK  257  A    between atoms: _631  and  _633
REMARK  258  A    between atoms: _633  and  _634
REMARK  259  A    between atoms: _633  and  _636
REMARK  260  A    between atoms: _636  and  _637
REMARK  261  A    between atoms: _639  and  _641
REMARK  262  A    between atoms: _641  and  _642
REMARK  263  A    between atoms: _641  and  _644
REMARK  264  A    between atoms: _644  and  _645
REMARK  265  A    between atoms: _648  and  _650
REMARK  266  A    between atoms: _650  and  _651
REMARK  267  A    between atoms: _654  and  _656
REMARK  268  A    between atoms: _656  and  _657
REMARK  269  A    between atoms: _656  and  _659
REMARK  270  A    between atoms: _659  and  _660
REMARK  271  A    between atoms: _662  and  _664
REMARK  272  A    between atoms: _664  and  _665
REMARK  273  A    between atoms: _664  and  _667
REMARK  274  A    between atoms: _667  and  _668
REMARK  275  A    between atoms: _668  and  _669
REMARK  276  A    between atoms: _673  and  _674
REMARK  277  A    between atoms: _679  and  _681
REMARK  278  A    between atoms: _681  and  _682
REMARK  279  A    between atoms: _681  and  _684
REMARK  280  A    between atoms: _684  and  _685
REMARK  281  A    between atoms: _687  and  _689
REMARK  282  A    between atoms: _689  and  _690
REMARK  283  A    between atoms: _689  and  _692
REMARK  284  A    between atoms: _692  and  _693
REMARK  285  A    between atoms: _693  and  _694
REMARK  286  A    between atoms: _699  and  _701
REMARK  287  A    between atoms: _701  and  _702
REMARK  288  A    between atoms: _701  and  _704
REMARK  289  A    between atoms: _704  and  _705
REMARK  290  A    between atoms: _705  and  _706
REMARK  291  A    between atoms: _711  and  _713
REMARK  292  A    between atoms: _713  and  _714
REMARK  293  A    between atoms: _713  and  _716
REMARK  294  A    between atoms: _716  and  _717
REMARK  295  A    between atoms: _720  and  _722
REMARK  296  A    between atoms: _722  and  _723
REMARK  297  A    between atoms: _722  and  _725
REMARK  298  A    between atoms: _725  and  _726
REMARK  299  A    between atoms: _729  and  _731
REMARK  300  A    between atoms: _731  and  _732
REMARK  301  A    between atoms: _731  and  _734
REMARK  302  A    between atoms: _734  and  _735
REMARK  303  A    between atoms: _741  and  _743
REMARK  304  A    between atoms: _743  and  _744
REMARK  305  A    between atoms: _743  and  _746
REMARK  306  A    between atoms: _746  and  _747
REMARK  307  A    between atoms: _752  and  _753
REMARK  308  A    between atoms: _755  and  _757
REMARK  309  A    between atoms: _757  and  _758
REMARK  310  A    between atoms: _757  and  _760
REMARK  311  A    between atoms: _760  and  _761
REMARK  312  A    between atoms: _767  and  _769
REMARK  313  A    between atoms: _769  and  _770
REMARK  314  A    between atoms: _769  and  _772
REMARK  315  A    between atoms: _772  and  _773
REMARK  316  A    between atoms: _778  and  _780
REMARK  317  A    between atoms: _780  and  _781
REMARK  318  A    between atoms: _780  and  _783
REMARK  319  A    between atoms: _783  and  _784
REMARK  320  A    between atoms: _784  and  _785
REMARK                            x       y       z     vdW  Elec       q    Type
REMARK                         _______ _______ _______ _____ _____    ______ ____
ROOT
ATOM      1  O   HOH     1      -1.718  59.534  24.752  0.00  0.00    +0.000 OA
ENDROOT
TORSDOF 0
REMARK  Name = ../refined-set-2016/3drf/3drf_pocket.pdb
REMARK  320 active torsions:
REMARK  status: ('A' for Active; 'I' for Inactive)
REMARK    1  A    between atoms: _1  and  _3
REMARK    2  A    between atoms: _3  and  _4
REMARK    3  A    between atoms: _3  and  _6
REMARK    4  A    between atoms: _6  and  _7
REMARK    5  A    between atoms: _12  and  _13
REMARK    6  A    between atoms: _15  and  _17
REMARK    7  A    between atoms: _17  and  _18
REMARK    8  A    between atoms: _17  and  _20
REMARK    9  A    between atoms: _20  and  _21
REMARK   10  A    between atoms: _21  and  _22
REMARK   11  A    between atoms: _27  and  _29
REMARK   12  A    between atoms: _29  and  _30
REMARK   13  A    between atoms: _29  and  _32
REMARK   14  A    between atoms: _32  and  _33
REMARK   15  A    between atoms: _35  and  _37
REMARK   16  A    between atoms: _37  and  _38
REMARK   17  A    between atoms: _37  and  _40
REMARK   18  A    between atoms: _40  and  _41
REMARK   19  A    between atoms: _44  and  _46
REMARK   20  A    between atoms: _46  and  _47
REMARK   21  A    between atoms: _46  and  _49
REMARK   22  A    between atoms: _49  and  _50
REMARK   23  A    between atoms: _52  and  _54
REMARK   24  A    between atoms: _54  and  _55
REMARK   25  A    between atoms: _54  and  _57
REMARK   26  A    between atoms: _57  and  _58
REMARK   27  A    between atoms: _60  and  _62
REMARK   28  A    between atoms: _62  and  _63
REMARK   29  A    between atoms: _65  and  _67
REMARK   30  A    between atoms: _67  and  _68
REMARK   31  A    between atoms: _67  and  _70
REMARK   32  A    between atoms: _70  and  _71
REMARK   33  A    between atoms: _73  and  _75
REMARK   34  A    between atoms: _75  and  _76
REMARK   35  A    between atoms: _75  and  _78
REMARK   36  A    between atoms: _78  and  _79
REMARK   37  A    between atoms: _84  and  _86
REMARK   38  A    between atoms: _86  and  _87
REMARK   39  A    between atoms: _86  and  _89
REMARK   40  A    between atoms: _89  and  _90
REMARK   41  A    between atoms: _93  and  _95
REMARK   42  A    between atoms: _95  and  _96
REMARK   43  A    between atoms: _99  and  _101
REMARK   44  A    between atoms: _101  and  _102
REMARK   45  A    between atoms: _101  and  _104
REMARK   46  A    between atoms: _104  and  _105
REMARK   47  A    between atoms: _108  and  _110
REMARK   48  A    between atoms: _110  and  _111
REMARK   49  A    between atoms: _110  and  _113
REMARK   50  A    between atoms: _113  and  _114
REMARK   51  A    between atoms: _120  and  _122
REMARK   52  A    between atoms: _122  and  _123
REMARK   53  A    between atoms: _126  and  _128
REMARK   54  A    between atoms: _128  and  _129
REMARK   55  A    between atoms: _128  and  _131
REMARK   56  A    between atoms: _131  and  _132
REMARK   57  A    between atoms: _135  and  _137
REMARK   58  A    between atoms: _137  and  _138
REMARK   59  A    between atoms: _140  and  _142
REMARK   60  A    between atoms: _142  and  _143
REMARK   61  A    between atoms: _142  and  _145
REMARK   62  A    between atoms: _145  and  _146
REMARK   63  A    between atoms: _146  and  _147
REMARK   64  A    between atoms: _152  and  _154
REMARK   65  A    between atoms: _154  and  _155
REMARK   66  A    between atoms: _157  and  _159
REMARK   67  A    between atoms: _159  and  _160
REMARK   68  A    between atoms: _159  and  _162
REMARK   69  A    between atoms: _162  and  _163
REMARK   70  A    between atoms: _166  and  _168
REMARK   71  A    between atoms: _168  and  _169
REMARK   72  A    between atoms: _168  and  _171
REMARK   73  A    between atoms: _171  and  _172
REMARK   74  A    between atoms: _178  and  _180
REMARK   75  A    between atoms: _180  and  _181
REMARK   76  A    between atoms: _180  and  _183
REMARK   77  A    between atoms: _183  and  _184
REMARK   78  A    between atoms: _187  and  _189
REMARK   79  A    between atoms: _189  and  _190
REMARK   80  A    between atoms: _189  and  _192
REMARK   81  A    between atoms: _192  and  _193
REMARK   82  A    between atoms: _199  and  _201
REMARK   83  A    between atoms: _201  and  _202
REMARK   84  A    between atoms: _201  and  _204
REMARK   85  A    between atoms: _204  and  _205
REMARK   86  A    between atoms: _211  and  _213
REMARK   87  A    between atoms: _213  and  _214
REMARK   88  A    between atoms: _213  and  _216
REMARK   89  A    between atoms: _216  and  _217
REMARK   90  A    between atoms: _220  and  _222
REMARK   91  A    between atoms: _222  and  _223
REMARK   92  A    between atoms: _222  and  _225
REMARK   93  A    between atoms: _225  and  _226
REMARK   94  A    between atoms: _229  and  _231
REMARK   95  A    between atoms: _231  and  _232
REMARK   96  A    between atoms: _231  and  _234
REMARK   97  A    between atoms: _234  and  _235
REMARK   98  A    between atoms: _235  and  _236
REMARK   99  A    between atoms: _236  and  _237
REMARK  100  A    between atoms: _246  and  _248
REMARK  101  A    between atoms: _248  and  _249
REMARK  102  A    between atoms: _248  and  _251
REMARK  103  A    between atoms: _251  and  _252
REMARK  104  A    between atoms: _255  and  _257
REMARK  105  A    between atoms: _257  and  _258
REMARK  106  A    between atoms: _257  and  _260
REMARK  107  A    between atoms: _260  and  _261
REMARK  108  A    between atoms: _263  and  _265
REMARK  109  A    between atoms: _265  and  _266
REMARK  110  A    between atoms: _265  and  _268
REMARK  111  A    between atoms: _268  and  _269
REMARK  112  A    between atoms: _269  and  _270
REMARK  113  A    between atoms: _275  and  _277
REMARK  114  A    between atoms: _277  and  _278
REMARK  115  A    between atoms: _277  and  _280
REMARK  116  A    between atoms: _280  and  _281
REMARK  117  A    between atoms: _283  and  _285
REMARK  118  A    between atoms: _285  and  _286
REMARK  119  A    between atoms: _288  and  _290
REMARK  120  A    between atoms: _290  and  _291
REMARK  121  A    between atoms: _290  and  _293
REMARK  122  A    between atoms: _293  and  _294
REMARK  123  A    between atoms: _299  and  _301
REMARK  124  A    between atoms: _301  and  _302
REMARK  125  A    between atoms: _304  and  _306
REMARK  126  A    between atoms: _306  and  _307
REMARK  127  A    between atoms: _306  and  _309
REMARK  128  A    between atoms: _309  and  _310
REMARK  129  A    between atoms: _315  and  _316
REMARK  130  A    between atoms: _318  and  _320
REMARK  131  A    between atoms: _320  and  _321
REMARK  132  A    between atoms: _320  and  _323
REMARK  133  A    between atoms: _323  and  _324
REMARK  134  A    between atoms: _330  and  _332
REMARK  135  A    between atoms: _332  and  _333
REMARK  136  A    between atoms: _332  and  _335
REMARK  137  A    between atoms: _335  and  _336
REMARK  138  A    between atoms: _339  and  _341
REMARK  139  A    between atoms: _341  and  _342
REMARK  140  A    between atoms: _341  and  _344
REMARK  141  A    between atoms: _344  and  _345
REMARK  142  A    between atoms: _345  and  _346
REMARK  143  A    between atoms: _349  and  _351
REMARK  144  A    between atoms: _351  and  _352
REMARK  145  A    between atoms: _351  and  _354
REMARK  146  A    between atoms: _354  and  _355
REMARK  147  A    between atoms: _358  and  _360
REMARK  148  A    between atoms: _360  and  _361
REMARK  149  A    between atoms: _360  and  _363
REMARK  150  A    between atoms: _363  and  _364
REMARK  151  A    between atoms: _367  and  _369
REMARK  152  A    between atoms: _369  and  _370
REMARK  153  A    between atoms: _372  and  _374
REMARK  154  A    between atoms: _374  and  _375
REMARK  155  A    between atoms: _374  and  _377
REMARK  156  A    between atoms: _380  and  _382
REMARK  157  A    between atoms: _382  and  _383
REMARK  158  A    between atoms: _382  and  _385
REMARK  159  A    between atoms: _385  and  _386
REMARK  160  A    between atoms: _388  and  _390
REMARK  161  A    between atoms: _390  and  _391
REMARK  162  A    between atoms: _390  and  _393
REMARK  163  A    between atoms: _393  and  _394
REMARK  164  A    between atoms: _394  and  _395
REMARK  165  A    between atoms: _397  and  _399
REMARK  166  A    between atoms: _399  and  _400
REMARK  167  A    between atoms: _399  and  _402
REMARK  168  A    between atoms: _402  and  _403
REMARK  169  A    between atoms: _408  and  _409
REMARK  170  A    between atoms: _411  and  _413
REMARK  171  A    between atoms: _413  and  _414
REMARK  172  A    between atoms: _413  and  _416
REMARK  173  A    between atoms: _416  and  _417
REMARK  174  A    between atoms: _420  and  _422
REMARK  175  A    between atoms: _422  and  _423
REMARK  176  A    between atoms: _422  and  _425
REMARK  177  A    between atoms: _425  and  _426
REMARK  178  A    between atoms: _428  and  _430
REMARK  179  A    between atoms: _430  and  _431
REMARK  180  A    between atoms: _430  and  _433
REMARK  181  A    between atoms: _433  and  _434
REMARK  182  A    between atoms: _437  and  _439
REMARK  183  A    between atoms: _439  and  _440
REMARK  184  A    between atoms: _439  and  _442
REMARK  185  A    between atoms: _442  and  _443
REMARK  186  A    between atoms: _448  and  _449
REMARK  187  A    between atoms: _451  and  _453
REMARK  188  A    between atoms: _453  and  _454
REMARK  189  A    between atoms: _453  and  _456
REMARK  190  A    between atoms: _456  and  _457
REMARK  191  A    between atoms: _459  and  _461
REMARK  192  A    between atoms: _461  and  _462
REMARK  193  A    between atoms: _461  and  _464
REMARK  194  A    between atoms: _464  and  _465
REMARK  195  A    between atoms: _471  and  _473
REMARK  196  A    between atoms: _473  and  _474
REMARK  197  A    between atoms: _473  and  _476
REMARK  198  A    between atoms: _476  and  _477
REMARK  199  A    between atoms: _477  and  _478
REMARK  200  A    between atoms: _478  and  _479
REMARK  201  A    between atoms: _488  and  _490
REMARK  202  A    between atoms: _490  and  _491
REMARK  203  A    between atoms: _490  and  _493
REMARK  204  A    between atoms: _496  and  _498
REMARK  205  A    between atoms: _498  and  _499
REMARK  206  A    between atoms: _501  and  _503
REMARK  207  A    between atoms: _503  and  _504
REMARK  208  A    between atoms: _503  and  _506
REMARK  209  A    between atoms: _506  and  _507
REMARK  210  A    between atoms: _510  and  _512
REMARK  211  A    between atoms: _512  and  _513
REMARK  212  A    between atoms: _512  and  _515
REMARK  213  A    between atoms: _515  and  _516
REMARK  214  A    between atoms: _516  and  _517
REMARK  215  A    between atoms: _519  and  _521
REMARK  216  A    between atoms: _521  and  _522
REMARK  217  A    between atoms: _521  and  _524
REMARK  218  A    between atoms: _524  and  _525
REMARK  219  A    between atoms: _531  and  _533
REMARK  220  A    between atoms: _533  and  _534
REMARK  221  A    between atoms: _533  and  _536
REMARK  222  A    between atoms: _536  and  _537
REMARK  223  A    between atoms: _542  and  _544
REMARK  224  A    between atoms: _544  and  _545
REMARK  225  A    between atoms: _544  and  _547
REMARK  226  A    between atoms: _547  and  _548
REMARK  227  A    between atoms: _558  and  _560
REMARK  228  A    between atoms: _560  and  _561
REMARK  229  A    between atoms: _560  and  _563
REMARK  230  A    between atoms: _566  and  _568
REMARK  231  A    between atoms: _568  and  _569
REMARK  232  A    between atoms: _568  and  _571
REMARK  233  A    between atoms: _571  and  _572
REMARK  234  A    between atoms: _575  and  _577
REMARK  235  A    between atoms: _577  and  _578
REMARK  236  A    between atoms: _577  and  _580
REMARK  237  A    between atoms: _580  and  _581
REMARK  238  A    between atoms: _581  and  _582
REMARK  239  A    between atoms: _584  and  _586
REMARK  240  A    between atoms: _586  and  _587
REMARK  241  A    between atoms: _586  and  _589
REMARK  242  A    between atoms: _589  and  _590
REMARK  243  A    between atoms: _593  and  _595
REMARK  244  A    between atoms: _595  and  _596
REMARK  245  A    between atoms: _595  and  _598
REMARK  246  A    between atoms: _598  and  _599
REMARK  247  A    between atoms: _602  and  _604
REMARK  248  A    between atoms: _604  and  _605
REMARK  249  A    between atoms: _607  and  _609
REMARK  250  A    between atoms: _609  and  _610
REMARK  251  A    between atoms: _609  and  _612
REMARK  252  A    between atoms: _612  and  _613
REMARK  253  A    between atoms: _615  and  _617
REMARK  254  A    between atoms: _617  and  _618
REMARK  255  A    between atoms: _617  and  _620
REMARK  256  A    between atoms: _620  and  _621
REMARK  257  A    between atoms: _631  and  _633
REMARK  258  A    between atoms: _633  and  _634
REMARK  259  A    between atoms: _633  and  _636
REMARK  260  A    between atoms: _636  and  _637
REMARK  261  A    between atoms: _639  and  _641
REMARK  262  A    between atoms: _641  and  _642
REMARK  263  A    between atoms: _641  and  _644
REMARK  264  A    between atoms: _644  and  _645
REMARK  265  A    between atoms: _648  and  _650
REMARK  266  A    between atoms: _650  and  _651
REMARK  267  A    between atoms: _654  and  _656
REMARK  268  A    between atoms: _656  and  _657
REMARK  269  A    between atoms: _656  and  _659
REMARK  270  A    between atoms: _659  and  _660
REMARK  271  A    between atoms: _662  and  _664
REMARK  272  A    between atoms: _664  and  _665
REMARK  273  A    between atoms: _664  and  _667
REMARK  274  A    between atoms: _667  and  _668
REMARK  275  A    between atoms: _668  and  _669
REMARK  276  A    between atoms: _673  and  _674
REMARK  277  A    between atoms: _679  and  _681
REMARK  278  A    between atoms: _681  and  _682
REMARK  279  A    between atoms: _681  and  _684
REMARK  280  A    between atoms: _684  and  _685
REMARK  281  A    between atoms: _687  and  _689
REMARK  282  A    between atoms: _689  and  _690
REMARK  283  A    between atoms: _689  and  _692
REMARK  284  A    between atoms: _692  and  _693
REMARK  285  A    between atoms: _693  and  _694
REMARK  286  A    between atoms: _699  and  _701
REMARK  287  A    between atoms: _701  and  _702
REMARK  288  A    between atoms: _701  and  _704
REMARK  289  A    between atoms: _704  and  _705
REMARK  290  A    between atoms: _705  and  _706
REMARK  291  A    between atoms: _711  and  _713
REMARK  292  A    between atoms: _713  and  _714
REMARK  293  A    between atoms: _713  and  _716
REMARK  294  A    between atoms: _716  and  _717
REMARK  295  A    between atoms: _720  and  _722
REMARK  296  A    between atoms: _722  and  _723
REMARK  297  A    between atoms: _722  and  _725
REMARK  298  A    between atoms: _725  and  _726
REMARK  299  A    between atoms: _729  and  _731
REMARK  300  A    between atoms: _731  and  _732
REMARK  301  A    between atoms: _731  and  _734
REMARK  302  A    between atoms: _734  and  _735
REMARK  303  A    between atoms: _741  and  _743
REMARK  304  A    between atoms: _743  and  _744
REMARK  305  A    between atoms: _743  and  _746
REMARK  306  A    between atoms: _746  and  _747
REMARK  307  A    between atoms: _752  and  _753
REMARK  308  A    between atoms: _755  and  _757
REMARK  309  A    between atoms: _757  and  _758
REMARK  310  A    between atoms: _757  and  _760
REMARK  311  A    between atoms: _760  and  _761
REMARK  312  A    between atoms: _767  and  _769
REMARK  313  A    between atoms: _769  and  _770
REMARK  314  A    between atoms: _769  and  _772
REMARK  315  A    between atoms: _772  and  _773
REMARK  316  A    between atoms: _778  and  _780
REMARK  317  A    between atoms: _780  and  _781
REMARK  318  A    between atoms: _780  and  _783
REMARK  319  A    between atoms: _783  and  _784
REMARK  320  A    between atoms: _784  and  _785
REMARK                            x       y       z     vdW  Elec       q    Type
REMARK                         _______ _______ _______ _____ _____    ______ ____
ROOT
ATOM      1  O   HOH     1       0.588  49.737  36.973  0.00  0.00    +0.000 OA
ENDROOT
TORSDOF 0
REMARK  Name = ../refined-set-2016/3drf/3drf_pocket.pdb
REMARK  320 active torsions:
REMARK  status: ('A' for Active; 'I' for Inactive)
REMARK    1  A    between atoms: _1  and  _3
REMARK    2  A    between atoms: _3  and  _4
REMARK    3  A    between atoms: _3  and  _6
REMARK    4  A    between atoms: _6  and  _7
REMARK    5  A    between atoms: _12  and  _13
REMARK    6  A    between atoms: _15  and  _17
REMARK    7  A    between atoms: _17  and  _18
REMARK    8  A    between atoms: _17  and  _20
REMARK    9  A    between atoms: _20  and  _21
REMARK   10  A    between atoms: _21  and  _22
REMARK   11  A    between atoms: _27  and  _29
REMARK   12  A    between atoms: _29  and  _30
REMARK   13  A    between atoms: _29  and  _32
REMARK   14  A    between atoms: _32  and  _33
REMARK   15  A    between atoms: _35  and  _37
REMARK   16  A    between atoms: _37  and  _38
REMARK   17  A    between atoms: _37  and  _40
REMARK   18  A    between atoms: _40  and  _41
REMARK   19  A    between atoms: _44  and  _46
REMARK   20  A    between atoms: _46  and  _47
REMARK   21  A    between atoms: _46  and  _49
REMARK   22  A    between atoms: _49  and  _50
REMARK   23  A    between atoms: _52  and  _54
REMARK   24  A    between atoms: _54  and  _55
REMARK   25  A    between atoms: _54  and  _57
REMARK   26  A    between atoms: _57  and  _58
REMARK   27  A    between atoms: _60  and  _62
REMARK   28  A    between atoms: _62  and  _63
REMARK   29  A    between atoms: _65  and  _67
REMARK   30  A    between atoms: _67  and  _68
REMARK   31  A    between atoms: _67  and  _70
REMARK   32  A    between atoms: _70  and  _71
REMARK   33  A    between atoms: _73  and  _75
REMARK   34  A    between atoms: _75  and  _76
REMARK   35  A    between atoms: _75  and  _78
REMARK   36  A    between atoms: _78  and  _79
REMARK   37  A    between atoms: _84  and  _86
REMARK   38  A    between atoms: _86  and  _87
REMARK   39  A    between atoms: _86  and  _89
REMARK   40  A    between atoms: _89  and  _90
REMARK   41  A    between atoms: _93  and  _95
REMARK   42  A    between atoms: _95  and  _96
REMARK   43  A    between atoms: _99  and  _101
REMARK   44  A    between atoms: _101  and  _102
REMARK   45  A    between atoms: _101  and  _104
REMARK   46  A    between atoms: _104  and  _105
REMARK   47  A    between atoms: _108  and  _110
REMARK   48  A    between atoms: _110  and  _111
REMARK   49  A    between atoms: _110  and  _113
REMARK   50  A    between atoms: _113  and  _114
REMARK   51  A    between atoms: _120  and  _122
REMARK   52  A    between atoms: _122  and  _123
REMARK   53  A    between atoms: _126  and  _128
REMARK   54  A    between atoms: _128  and  _129
REMARK   55  A    between atoms: _128  and  _131
REMARK   56  A    between atoms: _131  and  _132
REMARK   57  A    between atoms: _135  and  _137
REMARK   58  A    between atoms: _137  and  _138
REMARK   59  A    between atoms: _140  and  _142
REMARK   60  A    between atoms: _142  and  _143
REMARK   61  A    between atoms: _142  and  _145
REMARK   62  A    between atoms: _145  and  _146
REMARK   63  A    between atoms: _146  and  _147
REMARK   64  A    between atoms: _152  and  _154
REMARK   65  A    between atoms: _154  and  _155
REMARK   66  A    between atoms: _157  and  _159
REMARK   67  A    between atoms: _159  and  _160
REMARK   68  A    between atoms: _159  and  _162
REMARK   69  A    between atoms: _162  and  _163
REMARK   70  A    between atoms: _166  and  _168
REMARK   71  A    between atoms: _168  and  _169
REMARK   72  A    between atoms: _168  and  _171
REMARK   73  A    between atoms: _171  and  _172
REMARK   74  A    between atoms: _178  and  _180
REMARK   75  A    between atoms: _180  and  _181
REMARK   76  A    between atoms: _180  and  _183
REMARK   77  A    between atoms: _183  and  _184
REMARK   78  A    between atoms: _187  and  _189
REMARK   79  A    between atoms: _189  and  _190
REMARK   80  A    between atoms: _189  and  _192
REMARK   81  A    between atoms: _192  and  _193
REMARK   82  A    between atoms: _199  and  _201
REMARK   83  A    between atoms: _201  and  _202
REMARK   84  A    between atoms: _201  and  _204
REMARK   85  A    between atoms: _204  and  _205
REMARK   86  A    between atoms: _211  and  _213
REMARK   87  A    between atoms: _213  and  _214
REMARK   88  A    between atoms: _213  and  _216
REMARK   89  A    between atoms: _216  and  _217
REMARK   90  A    between atoms: _220  and  _222
REMARK   91  A    between atoms: _222  and  _223
REMARK   92  A    between atoms: _222  and  _225
REMARK   93  A    between atoms: _225  and  _226
REMARK   94  A    between atoms: _229  and  _231
REMARK   95  A    between atoms: _231  and  _232
REMARK   96  A    between atoms: _231  and  _234
REMARK   97  A    between atoms: _234  and  _235
REMARK   98  A    between atoms: _235  and  _236
REMARK   99  A    between atoms: _236  and  _237
REMARK  100  A    between atoms: _246  and  _248
REMARK  101  A    between atoms: _248  and  _249
REMARK  102  A    between atoms: _248  and  _251
REMARK  103  A    between atoms: _251  and  _252
REMARK  104  A    between atoms: _255  and  _257
REMARK  105  A    between atoms: _257  and  _258
REMARK  106  A    between atoms: _257  and  _260
REMARK  107  A    between atoms: _260  and  _261
REMARK  108  A    between atoms: _263  and  _265
REMARK  109  A    between atoms: _265  and  _266
REMARK  110  A    between atoms: _265  and  _268
REMARK  111  A    between atoms: _268  and  _269
REMARK  112  A    between atoms: _269  and  _270
REMARK  113  A    between atoms: _275  and  _277
REMARK  114  A    between atoms: _277  and  _278
REMARK  115  A    between atoms: _277  and  _280
REMARK  116  A    between atoms: _280  and  _281
REMARK  117  A    between atoms: _283  and  _285
REMARK  118  A    between atoms: _285  and  _286
REMARK  119  A    between atoms: _288  and  _290
REMARK  120  A    between atoms: _290  and  _291
REMARK  121  A    between atoms: _290  and  _293
REMARK  122  A    between atoms: _293  and  _294
REMARK  123  A    between atoms: _299  and  _301
REMARK  124  A    between atoms: _301  and  _302
REMARK  125  A    between atoms: _304  and  _306
REMARK  126  A    between atoms: _306  and  _307
REMARK  127  A    between atoms: _306  and  _309
REMARK  128  A    between atoms: _309  and  _310
REMARK  129  A    between atoms: _315  and  _316
REMARK  130  A    between atoms: _318  and  _320
REMARK  131  A    between atoms: _320  and  _321
REMARK  132  A    between atoms: _320  and  _323
REMARK  133  A    between atoms: _323  and  _324
REMARK  134  A    between atoms: _330  and  _332
REMARK  135  A    between atoms: _332  and  _333
REMARK  136  A    between atoms: _332  and  _335
REMARK  137  A    between atoms: _335  and  _336
REMARK  138  A    between atoms: _339  and  _341
REMARK  139  A    between atoms: _341  and  _342
REMARK  140  A    between atoms: _341  and  _344
REMARK  141  A    between atoms: _344  and  _345
REMARK  142  A    between atoms: _345  and  _346
REMARK  143  A    between atoms: _349  and  _351
REMARK  144  A    between atoms: _351  and  _352
REMARK  145  A    between atoms: _351  and  _354
REMARK  146  A    between atoms: _354  and  _355
REMARK  147  A    between atoms: _358  and  _360
REMARK  148  A    between atoms: _360  and  _361
REMARK  149  A    between atoms: _360  and  _363
REMARK  150  A    between atoms: _363  and  _364
REMARK  151  A    between atoms: _367  and  _369
REMARK  152  A    between atoms: _369  and  _370
REMARK  153  A    between atoms: _372  and  _374
REMARK  154  A    between atoms: _374  and  _375
REMARK  155  A    between atoms: _374  and  _377
REMARK  156  A    between atoms: _380  and  _382
REMARK  157  A    between atoms: _382  and  _383
REMARK  158  A    between atoms: _382  and  _385
REMARK  159  A    between atoms: _385  and  _386
REMARK  160  A    between atoms: _388  and  _390
REMARK  161  A    between atoms: _390  and  _391
REMARK  162  A    between atoms: _390  and  _393
REMARK  163  A    between atoms: _393  and  _394
REMARK  164  A    between atoms: _394  and  _395
REMARK  165  A    between atoms: _397  and  _399
REMARK  166  A    between atoms: _399  and  _400
REMARK  167  A    between atoms: _399  and  _402
REMARK  168  A    between atoms: _402  and  _403
REMARK  169  A    between atoms: _408  and  _409
REMARK  170  A    between atoms: _411  and  _413
REMARK  171  A    between atoms: _413  and  _414
REMARK  172  A    between atoms: _413  and  _416
REMARK  173  A    between atoms: _416  and  _417
REMARK  174  A    between atoms: _420  and  _422
REMARK  175  A    between atoms: _422  and  _423
REMARK  176  A    between atoms: _422  and  _425
REMARK  177  A    between atoms: _425  and  _426
REMARK  178  A    between atoms: _428  and  _430
REMARK  179  A    between atoms: _430  and  _431
REMARK  180  A    between atoms: _430  and  _433
REMARK  181  A    between atoms: _433  and  _434
REMARK  182  A    between atoms: _437  and  _439
REMARK  183  A    between atoms: _439  and  _440
REMARK  184  A    between atoms: _439  and  _442
REMARK  185  A    between atoms: _442  and  _443
REMARK  186  A    between atoms: _448  and  _449
REMARK  187  A    between atoms: _451  and  _453
REMARK  188  A    between atoms: _453  and  _454
REMARK  189  A    between atoms: _453  and  _456
REMARK  190  A    between atoms: _456  and  _457
REMARK  191  A    between atoms: _459  and  _461
REMARK  192  A    between atoms: _461  and  _462
REMARK  193  A    between atoms: _461  and  _464
REMARK  194  A    between atoms: _464  and  _465
REMARK  195  A    between atoms: _471  and  _473
REMARK  196  A    between atoms: _473  and  _474
REMARK  197  A    between atoms: _473  and  _476
REMARK  198  A    between atoms: _476  and  _477
REMARK  199  A    between atoms: _477  and  _478
REMARK  200  A    between atoms: _478  and  _479
REMARK  201  A    between atoms: _488  and  _490
REMARK  202  A    between atoms: _490  and  _491
REMARK  203  A    between atoms: _490  and  _493
REMARK  204  A    between atoms: _496  and  _498
REMARK  205  A    between atoms: _498  and  _499
REMARK  206  A    between atoms: _501  and  _503
REMARK  207  A    between atoms: _503  and  _504
REMARK  208  A    between atoms: _503  and  _506
REMARK  209  A    between atoms: _506  and  _507
REMARK  210  A    between atoms: _510  and  _512
REMARK  211  A    between atoms: _512  and  _513
REMARK  212  A    between atoms: _512  and  _515
REMARK  213  A    between atoms: _515  and  _516
REMARK  214  A    between atoms: _516  and  _517
REMARK  215  A    between atoms: _519  and  _521
REMARK  216  A    between atoms: _521  and  _522
REMARK  217  A    between atoms: _521  and  _524
REMARK  218  A    between atoms: _524  and  _525
REMARK  219  A    between atoms: _531  and  _533
REMARK  220  A    between atoms: _533  and  _534
REMARK  221  A    between atoms: _533  and  _536
REMARK  222  A    between atoms: _536  and  _537
REMARK  223  A    between atoms: _542  and  _544
REMARK  224  A    between atoms: _544  and  _545
REMARK  225  A    between atoms: _544  and  _547
REMARK  226  A    between atoms: _547  and  _548
REMARK  227  A    between atoms: _558  and  _560
REMARK  228  A    between atoms: _560  and  _561
REMARK  229  A    between atoms: _560  and  _563
REMARK  230  A    between atoms: _566  and  _568
REMARK  231  A    between atoms: _568  and  _569
REMARK  232  A    between atoms: _568  and  _571
REMARK  233  A    between atoms: _571  and  _572
REMARK  234  A    between atoms: _575  and  _577
REMARK  235  A    between atoms: _577  and  _578
REMARK  236  A    between atoms: _577  and  _580
REMARK  237  A    between atoms: _580  and  _581
REMARK  238  A    between atoms: _581  and  _582
REMARK  239  A    between atoms: _584  and  _586
REMARK  240  A    between atoms: _586  and  _587
REMARK  241  A    between atoms: _586  and  _589
REMARK  242  A    between atoms: _589  and  _590
REMARK  243  A    between atoms: _593  and  _595
REMARK  244  A    between atoms: _595  and  _596
REMARK  245  A    between atoms: _595  and  _598
REMARK  246  A    between atoms: _598  and  _599
REMARK  247  A    between atoms: _602  and  _604
REMARK  248  A    between atoms: _604  and  _605
REMARK  249  A    between atoms: _607  and  _609
REMARK  250  A    between atoms: _609  and  _610
REMARK  251  A    between atoms: _609  and  _612
REMARK  252  A    between atoms: _612  and  _613
REMARK  253  A    between atoms: _615  and  _617
REMARK  254  A    between atoms: _617  and  _618
REMARK  255  A    between atoms: _617  and  _620
REMARK  256  A    between atoms: _620  and  _621
REMARK  257  A    between atoms: _631  and  _633
REMARK  258  A    between atoms: _633  and  _634
REMARK  259  A    between atoms: _633  and  _636
REMARK  260  A    between atoms: _636  and  _637
REMARK  261  A    between atoms: _639  and  _641
REMARK  262  A    between atoms: _641  and  _642
REMARK  263  A    between atoms: _641  and  _644
REMARK  264  A    between atoms: _644  and  _645
REMARK  265  A    between atoms: _648  and  _650
REMARK  266  A    between atoms: _650  and  _651
REMARK  267  A    between atoms: _654  and  _656
REMARK  268  A    between atoms: _656  and  _657
REMARK  269  A    between atoms: _656  and  _659
REMARK  270  A    between atoms: _659  and  _660
REMARK  271  A    between atoms: _662  and  _664
REMARK  272  A    between atoms: _664  and  _665
REMARK  273  A    between atoms: _664  and  _667
REMARK  274  A    between atoms: _667  and  _668
REMARK  275  A    between atoms: _668  and  _669
REMARK  276  A    between atoms: _673  and  _674
REMARK  277  A    between atoms: _679  and  _681
REMARK  278  A    between atoms: _681  and  _682
REMARK  279  A    between atoms: _681  and  _684
REMARK  280  A    between atoms: _684  and  _685
REMARK  281  A    between atoms: _687  and  _689
REMARK  282  A    between atoms: _689  and  _690
REMARK  283  A    between atoms: _689  and  _692
REMARK  284  A    between atoms: _692  and  _693
REMARK  285  A    between atoms: _693  and  _694
REMARK  286  A    between atoms: _699  and  _701
REMARK  287  A    between atoms: _701  and  _702
REMARK  288  A    between atoms: _701  and  _704
REMARK  289  A    between atoms: _704  and  _705
REMARK  290  A    between atoms: _705  and  _706
REMARK  291  A    between atoms: _711  and  _713
REMARK  292  A    between atoms: _713  and  _714
REMARK  293  A    between atoms: _713  and  _716
REMARK  294  A    between atoms: _716  and  _717
REMARK  295  A    between atoms: _720  and  _722
REMARK  296  A    between atoms: _722  and  _723
REMARK  297  A    between atoms: _722  and  _725
REMARK  298  A    between atoms: _725  and  _726
REMARK  299  A    between atoms: _729  and  _731
REMARK  300  A    between atoms: _731  and  _732
REMARK  301  A    between atoms: _731  and  _734
REMARK  302  A    between atoms: _734  and  _735
REMARK  303  A    between atoms: _741  and  _743
REMARK  304  A    between atoms: _743  and  _744
REMARK  305  A    between atoms: _743  and  _746
REMARK  306  A    between atoms: _746  and  _747
REMARK  307  A    between atoms: _752  and  _753
REMARK  308  A    between atoms: _755  and  _757
REMARK  309  A    between atoms: _757  and  _758
REMARK  310  A    between atoms: _757  and  _760
REMARK  311  A    between atoms: _760  and  _761
REMARK  312  A    between atoms: _767  and  _769
REMARK  313  A    between atoms: _769  and  _770
REMARK  314  A    between atoms: _769  and  _772
REMARK  315  A    between atoms: _772  and  _773
REMARK  316  A    between atoms: _778  and  _780
REMARK  317  A    between atoms: _780  and  _781
REMARK  318  A    between atoms: _780  and  _783
REMARK  319  A    between atoms: _783  and  _784
REMARK  320  A    between atoms: _784  and  _785
REMARK                            x       y       z     vdW  Elec       q    Type
REMARK                         _______ _______ _______ _____ _____    ______ ____
ROOT
ATOM      1  O   HOH     1      21.995  48.883  21.293  0.00  0.00    +0.000 OA
ENDROOT
TORSDOF 0
REMARK  Name = ../refined-set-2016/3drf/3drf_pocket.pdb
REMARK  320 active torsions:
REMARK  status: ('A' for Active; 'I' for Inactive)
REMARK    1  A    between atoms: _1  and  _3
REMARK    2  A    between atoms: _3  and  _4
REMARK    3  A    between atoms: _3  and  _6
REMARK    4  A    between atoms: _6  and  _7
REMARK    5  A    between atoms: _12  and  _13
REMARK    6  A    between atoms: _15  and  _17
REMARK    7  A    between atoms: _17  and  _18
REMARK    8  A    between atoms: _17  and  _20
REMARK    9  A    between atoms: _20  and  _21
REMARK   10  A    between atoms: _21  and  _22
REMARK   11  A    between atoms: _27  and  _29
REMARK   12  A    between atoms: _29  and  _30
REMARK   13  A    between atoms: _29  and  _32
REMARK   14  A    between atoms: _32  and  _33
REMARK   15  A    between atoms: _35  and  _37
REMARK   16  A    between atoms: _37  and  _38
REMARK   17  A    between atoms: _37  and  _40
REMARK   18  A    between atoms: _40  and  _41
REMARK   19  A    between atoms: _44  and  _46
REMARK   20  A    between atoms: _46  and  _47
REMARK   21  A    between atoms: _46  and  _49
REMARK   22  A    between atoms: _49  and  _50
REMARK   23  A    between atoms: _52  and  _54
REMARK   24  A    between atoms: _54  and  _55
REMARK   25  A    between atoms: _54  and  _57
REMARK   26  A    between atoms: _57  and  _58
REMARK   27  A    between atoms: _60  and  _62
REMARK   28  A    between atoms: _62  and  _63
REMARK   29  A    between atoms: _65  and  _67
REMARK   30  A    between atoms: _67  and  _68
REMARK   31  A    between atoms: _67  and  _70
REMARK   32  A    between atoms: _70  and  _71
REMARK   33  A    between atoms: _73  and  _75
REMARK   34  A    between atoms: _75  and  _76
REMARK   35  A    between atoms: _75  and  _78
REMARK   36  A    between atoms: _78  and  _79
REMARK   37  A    between atoms: _84  and  _86
REMARK   38  A    between atoms: _86  and  _87
REMARK   39  A    between atoms: _86  and  _89
REMARK   40  A    between atoms: _89  and  _90
REMARK   41  A    between atoms: _93  and  _95
REMARK   42  A    between atoms: _95  and  _96
REMARK   43  A    between atoms: _99  and  _101
REMARK   44  A    between atoms: _101  and  _102
REMARK   45  A    between atoms: _101  and  _104
REMARK   46  A    between atoms: _104  and  _105
REMARK   47  A    between atoms: _108  and  _110
REMARK   48  A    between atoms: _110  and  _111
REMARK   49  A    between atoms: _110  and  _113
REMARK   50  A    between atoms: _113  and  _114
REMARK   51  A    between atoms: _120  and  _122
REMARK   52  A    between atoms: _122  and  _123
REMARK   53  A    between atoms: _126  and  _128
REMARK   54  A    between atoms: _128  and  _129
REMARK   55  A    between atoms: _128  and  _131
REMARK   56  A    between atoms: _131  and  _132
REMARK   57  A    between atoms: _135  and  _137
REMARK   58  A    between atoms: _137  and  _138
REMARK   59  A    between atoms: _140  and  _142
REMARK   60  A    between atoms: _142  and  _143
REMARK   61  A    between atoms: _142  and  _145
REMARK   62  A    between atoms: _145  and  _146
REMARK   63  A    between atoms: _146  and  _147
REMARK   64  A    between atoms: _152  and  _154
REMARK   65  A    between atoms: _154  and  _155
REMARK   66  A    between atoms: _157  and  _159
REMARK   67  A    between atoms: _159  and  _160
REMARK   68  A    between atoms: _159  and  _162
REMARK   69  A    between atoms: _162  and  _163
REMARK   70  A    between atoms: _166  and  _168
REMARK   71  A    between atoms: _168  and  _169
REMARK   72  A    between atoms: _168  and  _171
REMARK   73  A    between atoms: _171  and  _172
REMARK   74  A    between atoms: _178  and  _180
REMARK   75  A    between atoms: _180  and  _181
REMARK   76  A    between atoms: _180  and  _183
REMARK   77  A    between atoms: _183  and  _184
REMARK   78  A    between atoms: _187  and  _189
REMARK   79  A    between atoms: _189  and  _190
REMARK   80  A    between atoms: _189  and  _192
REMARK   81  A    between atoms: _192  and  _193
REMARK   82  A    between atoms: _199  and  _201
REMARK   83  A    between atoms: _201  and  _202
REMARK   84  A    between atoms: _201  and  _204
REMARK   85  A    between atoms: _204  and  _205
REMARK   86  A    between atoms: _211  and  _213
REMARK   87  A    between atoms: _213  and  _214
REMARK   88  A    between atoms: _213  and  _216
REMARK   89  A    between atoms: _216  and  _217
REMARK   90  A    between atoms: _220  and  _222
REMARK   91  A    between atoms: _222  and  _223
REMARK   92  A    between atoms: _222  and  _225
REMARK   93  A    between atoms: _225  and  _226
REMARK   94  A    between atoms: _229  and  _231
REMARK   95  A    between atoms: _231  and  _232
REMARK   96  A    between atoms: _231  and  _234
REMARK   97  A    between atoms: _234  and  _235
REMARK   98  A    between atoms: _235  and  _236
REMARK   99  A    between atoms: _236  and  _237
REMARK  100  A    between atoms: _246  and  _248
REMARK  101  A    between atoms: _248  and  _249
REMARK  102  A    between atoms: _248  and  _251
REMARK  103  A    between atoms: _251  and  _252
REMARK  104  A    between atoms: _255  and  _257
REMARK  105  A    between atoms: _257  and  _258
REMARK  106  A    between atoms: _257  and  _260
REMARK  107  A    between atoms: _260  and  _261
REMARK  108  A    between atoms: _263  and  _265
REMARK  109  A    between atoms: _265  and  _266
REMARK  110  A    between atoms: _265  and  _268
REMARK  111  A    between atoms: _268  and  _269
REMARK  112  A    between atoms: _269  and  _270
REMARK  113  A    between atoms: _275  and  _277
REMARK  114  A    between atoms: _277  and  _278
REMARK  115  A    between atoms: _277  and  _280
REMARK  116  A    between atoms: _280  and  _281
REMARK  117  A    between atoms: _283  and  _285
REMARK  118  A    between atoms: _285  and  _286
REMARK  119  A    between atoms: _288  and  _290
REMARK  120  A    between atoms: _290  and  _291
REMARK  121  A    between atoms: _290  and  _293
REMARK  122  A    between atoms: _293  and  _294
REMARK  123  A    between atoms: _299  and  _301
REMARK  124  A    between atoms: _301  and  _302
REMARK  125  A    between atoms: _304  and  _306
REMARK  126  A    between atoms: _306  and  _307
REMARK  127  A    between atoms: _306  and  _309
REMARK  128  A    between atoms: _309  and  _310
REMARK  129  A    between atoms: _315  and  _316
REMARK  130  A    between atoms: _318  and  _320
REMARK  131  A    between atoms: _320  and  _321
REMARK  132  A    between atoms: _320  and  _323
REMARK  133  A    between atoms: _323  and  _324
REMARK  134  A    between atoms: _330  and  _332
REMARK  135  A    between atoms: _332  and  _333
REMARK  136  A    between atoms: _332  and  _335
REMARK  137  A    between atoms: _335  and  _336
REMARK  138  A    between atoms: _339  and  _341
REMARK  139  A    between atoms: _341  and  _342
REMARK  140  A    between atoms: _341  and  _344
REMARK  141  A    between atoms: _344  and  _345
REMARK  142  A    between atoms: _345  and  _346
REMARK  143  A    between atoms: _349  and  _351
REMARK  144  A    between atoms: _351  and  _352
REMARK  145  A    between atoms: _351  and  _354
REMARK  146  A    between atoms: _354  and  _355
REMARK  147  A    between atoms: _358  and  _360
REMARK  148  A    between atoms: _360  and  _361
REMARK  149  A    between atoms: _360  and  _363
REMARK  150  A    between atoms: _363  and  _364
REMARK  151  A    between atoms: _367  and  _369
REMARK  152  A    between atoms: _369  and  _370
REMARK  153  A    between atoms: _372  and  _374
REMARK  154  A    between atoms: _374  and  _375
REMARK  155  A    between atoms: _374  and  _377
REMARK  156  A    between atoms: _380  and  _382
REMARK  157  A    between atoms: _382  and  _383
REMARK  158  A    between atoms: _382  and  _385
REMARK  159  A    between atoms: _385  and  _386
REMARK  160  A    between atoms: _388  and  _390
REMARK  161  A    between atoms: _390  and  _391
REMARK  162  A    between atoms: _390  and  _393
REMARK  163  A    between atoms: _393  and  _394
REMARK  164  A    between atoms: _394  and  _395
REMARK  165  A    between atoms: _397  and  _399
REMARK  166  A    between atoms: _399  and  _400
REMARK  167  A    between atoms: _399  and  _402
REMARK  168  A    between atoms: _402  and  _403
REMARK  169  A    between atoms: _408  and  _409
REMARK  170  A    between atoms: _411  and  _413
REMARK  171  A    between atoms: _413  and  _414
REMARK  172  A    between atoms: _413  and  _416
REMARK  173  A    between atoms: _416  and  _417
REMARK  174  A    between atoms: _420  and  _422
REMARK  175  A    between atoms: _422  and  _423
REMARK  176  A    between atoms: _422  and  _425
REMARK  177  A    between atoms: _425  and  _426
REMARK  178  A    between atoms: _428  and  _430
REMARK  179  A    between atoms: _430  and  _431
REMARK  180  A    between atoms: _430  and  _433
REMARK  181  A    between atoms: _433  and  _434
REMARK  182  A    between atoms: _437  and  _439
REMARK  183  A    between atoms: _439  and  _440
REMARK  184  A    between atoms: _439  and  _442
REMARK  185  A    between atoms: _442  and  _443
REMARK  186  A    between atoms: _448  and  _449
REMARK  187  A    between atoms: _451  and  _453
REMARK  188  A    between atoms: _453  and  _454
REMARK  189  A    between atoms: _453  and  _456
REMARK  190  A    between atoms: _456  and  _457
REMARK  191  A    between atoms: _459  and  _461
REMARK  192  A    between atoms: _461  and  _462
REMARK  193  A    between atoms: _461  and  _464
REMARK  194  A    between atoms: _464  and  _465
REMARK  195  A    between atoms: _471  and  _473
REMARK  196  A    between atoms: _473  and  _474
REMARK  197  A    between atoms: _473  and  _476
REMARK  198  A    between atoms: _476  and  _477
REMARK  199  A    between atoms: _477  and  _478
REMARK  200  A    between atoms: _478  and  _479
REMARK  201  A    between atoms: _488  and  _490
REMARK  202  A    between atoms: _490  and  _491
REMARK  203  A    between atoms: _490  and  _493
REMARK  204  A    between atoms: _496  and  _498
REMARK  205  A    between atoms: _498  and  _499
REMARK  206  A    between atoms: _501  and  _503
REMARK  207  A    between atoms: _503  and  _504
REMARK  208  A    between atoms: _503  and  _506
REMARK  209  A    between atoms: _506  and  _507
REMARK  210  A    between atoms: _510  and  _512
REMARK  211  A    between atoms: _512  and  _513
REMARK  212  A    between atoms: _512  and  _515
REMARK  213  A    between atoms: _515  and  _516
REMARK  214  A    between atoms: _516  and  _517
REMARK  215  A    between atoms: _519  and  _521
REMARK  216  A    between atoms: _521  and  _522
REMARK  217  A    between atoms: _521  and  _524
REMARK  218  A    between atoms: _524  and  _525
REMARK  219  A    between atoms: _531  and  _533
REMARK  220  A    between atoms: _533  and  _534
REMARK  221  A    between atoms: _533  and  _536
REMARK  222  A    between atoms: _536  and  _537
REMARK  223  A    between atoms: _542  and  _544
REMARK  224  A    between atoms: _544  and  _545
REMARK  225  A    between atoms: _544  and  _547
REMARK  226  A    between atoms: _547  and  _548
REMARK  227  A    between atoms: _558  and  _560
REMARK  228  A    between atoms: _560  and  _561
REMARK  229  A    between atoms: _560  and  _563
REMARK  230  A    between atoms: _566  and  _568
REMARK  231  A    between atoms: _568  and  _569
REMARK  232  A    between atoms: _568  and  _571
REMARK  233  A    between atoms: _571  and  _572
REMARK  234  A    between atoms: _575  and  _577
REMARK  235  A    between atoms: _577  and  _578
REMARK  236  A    between atoms: _577  and  _580
REMARK  237  A    between atoms: _580  and  _581
REMARK  238  A    between atoms: _581  and  _582
REMARK  239  A    between atoms: _584  and  _586
REMARK  240  A    between atoms: _586  and  _587
REMARK  241  A    between atoms: _586  and  _589
REMARK  242  A    between atoms: _589  and  _590
REMARK  243  A    between atoms: _593  and  _595
REMARK  244  A    between atoms: _595  and  _596
REMARK  245  A    between atoms: _595  and  _598
REMARK  246  A    between atoms: _598  and  _599
REMARK  247  A    between atoms: _602  and  _604
REMARK  248  A    between atoms: _604  and  _605
REMARK  249  A    between atoms: _607  and  _609
REMARK  250  A    between atoms: _609  and  _610
REMARK  251  A    between atoms: _609  and  _612
REMARK  252  A    between atoms: _612  and  _613
REMARK  253  A    between atoms: _615  and  _617
REMARK  254  A    between atoms: _617  and  _618
REMARK  255  A    between atoms: _617  and  _620
REMARK  256  A    between atoms: _620  and  _621
REMARK  257  A    between atoms: _631  and  _633
REMARK  258  A    between atoms: _633  and  _634
REMARK  259  A    between atoms: _633  and  _636
REMARK  260  A    between atoms: _636  and  _637
REMARK  261  A    between atoms: _639  and  _641
REMARK  262  A    between atoms: _641  and  _642
REMARK  263  A    between atoms: _641  and  _644
REMARK  264  A    between atoms: _644  and  _645
REMARK  265  A    between atoms: _648  and  _650
REMARK  266  A    between atoms: _650  and  _651
REMARK  267  A    between atoms: _654  and  _656
REMARK  268  A    between atoms: _656  and  _657
REMARK  269  A    between atoms: _656  and  _659
REMARK  270  A    between atoms: _659  and  _660
REMARK  271  A    between atoms: _662  and  _664
REMARK  272  A    between atoms: _664  and  _665
REMARK  273  A    between atoms: _664  and  _667
REMARK  274  A    between atoms: _667  and  _668
REMARK  275  A    between atoms: _668  and  _669
REMARK  276  A    between atoms: _673  and  _674
REMARK  277  A    between atoms: _679  and  _681
REMARK  278  A    between atoms: _681  and  _682
REMARK  279  A    between atoms: _681  and  _684
REMARK  280  A    between atoms: _684  and  _685
REMARK  281  A    between atoms: _687  and  _689
REMARK  282  A    between atoms: _689  and  _690
REMARK  283  A    between atoms: _689  and  _692
REMARK  284  A    between atoms: _692  and  _693
REMARK  285  A    between atoms: _693  and  _694
REMARK  286  A    between atoms: _699  and  _701
REMARK  287  A    between atoms: _701  and  _702
REMARK  288  A    between atoms: _701  and  _704
REMARK  289  A    between atoms: _704  and  _705
REMARK  290  A    between atoms: _705  and  _706
REMARK  291  A    between atoms: _711  and  _713
REMARK  292  A    between atoms: _713  and  _714
REMARK  293  A    between atoms: _713  and  _716
REMARK  294  A    between atoms: _716  and  _717
REMARK  295  A    between atoms: _720  and  _722
REMARK  296  A    between atoms: _722  and  _723
REMARK  297  A    between atoms: _722  and  _725
REMARK  298  A    between atoms: _725  and  _726
REMARK  299  A    between atoms: _729  and  _731
REMARK  300  A    between atoms: _731  and  _732
REMARK  301  A    between atoms: _731  and  _734
REMARK  302  A    between atoms: _734  and  _735
REMARK  303  A    between atoms: _741  and  _743
REMARK  304  A    between atoms: _743  and  _744
REMARK  305  A    between atoms: _743  and  _746
REMARK  306  A    between atoms: _746  and  _747
REMARK  307  A    between atoms: _752  and  _753
REMARK  308  A    between atoms: _755  and  _757
REMARK  309  A    between atoms: _757  and  _758
REMARK  310  A    between atoms: _757  and  _760
REMARK  311  A    between atoms: _760  and  _761
REMARK  312  A    between atoms: _767  and  _769
REMARK  313  A    between atoms: _769  and  _770
REMARK  314  A    between atoms: _769  and  _772
REMARK  315  A    between atoms: _772  and  _773
REMARK  316  A    between atoms: _778  and  _780
REMARK  317  A    between atoms: _780  and  _781
REMARK  318  A    between atoms: _780  and  _783
REMARK  319  A    between atoms: _783  and  _784
REMARK  320  A    between atoms: _784  and  _785
REMARK                            x       y       z     vdW  Elec       q    Type
REMARK                         _______ _______ _______ _____ _____    ______ ____
ROOT
ATOM      1  O   HOH     1      22.396  51.491  20.919  0.00  0.00    +0.000 OA
ENDROOT
TORSDOF 0
REMARK  Name = ../refined-set-2016/3drf/3drf_pocket.pdb
REMARK  320 active torsions:
REMARK  status: ('A' for Active; 'I' for Inactive)
REMARK    1  A    between atoms: _1  and  _3
REMARK    2  A    between atoms: _3  and  _4
REMARK    3  A    between atoms: _3  and  _6
REMARK    4  A    between atoms: _6  and  _7
REMARK    5  A    between atoms: _12  and  _13
REMARK    6  A    between atoms: _15  and  _17
REMARK    7  A    between atoms: _17  and  _18
REMARK    8  A    between atoms: _17  and  _20
REMARK    9  A    between atoms: _20  and  _21
REMARK   10  A    between atoms: _21  and  _22
REMARK   11  A    between atoms: _27  and  _29
REMARK   12  A    between atoms: _29  and  _30
REMARK   13  A    between atoms: _29  and  _32
REMARK   14  A    between atoms: _32  and  _33
REMARK   15  A    between atoms: _35  and  _37
REMARK   16  A    between atoms: _37  and  _38
REMARK   17  A    between atoms: _37  and  _40
REMARK   18  A    between atoms: _40  and  _41
REMARK   19  A    between atoms: _44  and  _46
REMARK   20  A    between atoms: _46  and  _47
REMARK   21  A    between atoms: _46  and  _49
REMARK   22  A    between atoms: _49  and  _50
REMARK   23  A    between atoms: _52  and  _54
REMARK   24  A    between atoms: _54  and  _55
REMARK   25  A    between atoms: _54  and  _57
REMARK   26  A    between atoms: _57  and  _58
REMARK   27  A    between atoms: _60  and  _62
REMARK   28  A    between atoms: _62  and  _63
REMARK   29  A    between atoms: _65  and  _67
REMARK   30  A    between atoms: _67  and  _68
REMARK   31  A    between atoms: _67  and  _70
REMARK   32  A    between atoms: _70  and  _71
REMARK   33  A    between atoms: _73  and  _75
REMARK   34  A    between atoms: _75  and  _76
REMARK   35  A    between atoms: _75  and  _78
REMARK   36  A    between atoms: _78  and  _79
REMARK   37  A    between atoms: _84  and  _86
REMARK   38  A    between atoms: _86  and  _87
REMARK   39  A    between atoms: _86  and  _89
REMARK   40  A    between atoms: _89  and  _90
REMARK   41  A    between atoms: _93  and  _95
REMARK   42  A    between atoms: _95  and  _96
REMARK   43  A    between atoms: _99  and  _101
REMARK   44  A    between atoms: _101  and  _102
REMARK   45  A    between atoms: _101  and  _104
REMARK   46  A    between atoms: _104  and  _105
REMARK   47  A    between atoms: _108  and  _110
REMARK   48  A    between atoms: _110  and  _111
REMARK   49  A    between atoms: _110  and  _113
REMARK   50  A    between atoms: _113  and  _114
REMARK   51  A    between atoms: _120  and  _122
REMARK   52  A    between atoms: _122  and  _123
REMARK   53  A    between atoms: _126  and  _128
REMARK   54  A    between atoms: _128  and  _129
REMARK   55  A    between atoms: _128  and  _131
REMARK   56  A    between atoms: _131  and  _132
REMARK   57  A    between atoms: _135  and  _137
REMARK   58  A    between atoms: _137  and  _138
REMARK   59  A    between atoms: _140  and  _142
REMARK   60  A    between atoms: _142  and  _143
REMARK   61  A    between atoms: _142  and  _145
REMARK   62  A    between atoms: _145  and  _146
REMARK   63  A    between atoms: _146  and  _147
REMARK   64  A    between atoms: _152  and  _154
REMARK   65  A    between atoms: _154  and  _155
REMARK   66  A    between atoms: _157  and  _159
REMARK   67  A    between atoms: _159  and  _160
REMARK   68  A    between atoms: _159  and  _162
REMARK   69  A    between atoms: _162  and  _163
REMARK   70  A    between atoms: _166  and  _168
REMARK   71  A    between atoms: _168  and  _169
REMARK   72  A    between atoms: _168  and  _171
REMARK   73  A    between atoms: _171  and  _172
REMARK   74  A    between atoms: _178  and  _180
REMARK   75  A    between atoms: _180  and  _181
REMARK   76  A    between atoms: _180  and  _183
REMARK   77  A    between atoms: _183  and  _184
REMARK   78  A    between atoms: _187  and  _189
REMARK   79  A    between atoms: _189  and  _190
REMARK   80  A    between atoms: _189  and  _192
REMARK   81  A    between atoms: _192  and  _193
REMARK   82  A    between atoms: _199  and  _201
REMARK   83  A    between atoms: _201  and  _202
REMARK   84  A    between atoms: _201  and  _204
REMARK   85  A    between atoms: _204  and  _205
REMARK   86  A    between atoms: _211  and  _213
REMARK   87  A    between atoms: _213  and  _214
REMARK   88  A    between atoms: _213  and  _216
REMARK   89  A    between atoms: _216  and  _217
REMARK   90  A    between atoms: _220  and  _222
REMARK   91  A    between atoms: _222  and  _223
REMARK   92  A    between atoms: _222  and  _225
REMARK   93  A    between atoms: _225  and  _226
REMARK   94  A    between atoms: _229  and  _231
REMARK   95  A    between atoms: _231  and  _232
REMARK   96  A    between atoms: _231  and  _234
REMARK   97  A    between atoms: _234  and  _235
REMARK   98  A    between atoms: _235  and  _236
REMARK   99  A    between atoms: _236  and  _237
REMARK  100  A    between atoms: _246  and  _248
REMARK  101  A    between atoms: _248  and  _249
REMARK  102  A    between atoms: _248  and  _251
REMARK  103  A    between atoms: _251  and  _252
REMARK  104  A    between atoms: _255  and  _257
REMARK  105  A    between atoms: _257  and  _258
REMARK  106  A    between atoms: _257  and  _260
REMARK  107  A    between atoms: _260  and  _261
REMARK  108  A    between atoms: _263  and  _265
REMARK  109  A    between atoms: _265  and  _266
REMARK  110  A    between atoms: _265  and  _268
REMARK  111  A    between atoms: _268  and  _269
REMARK  112  A    between atoms: _269  and  _270
REMARK  113  A    between atoms: _275  and  _277
REMARK  114  A    between atoms: _277  and  _278
REMARK  115  A    between atoms: _277  and  _280
REMARK  116  A    between atoms: _280  and  _281
REMARK  117  A    between atoms: _283  and  _285
REMARK  118  A    between atoms: _285  and  _286
REMARK  119  A    between atoms: _288  and  _290
REMARK  120  A    between atoms: _290  and  _291
REMARK  121  A    between atoms: _290  and  _293
REMARK  122  A    between atoms: _293  and  _294
REMARK  123  A    between atoms: _299  and  _301
REMARK  124  A    between atoms: _301  and  _302
REMARK  125  A    between atoms: _304  and  _306
REMARK  126  A    between atoms: _306  and  _307
REMARK  127  A    between atoms: _306  and  _309
REMARK  128  A    between atoms: _309  and  _310
REMARK  129  A    between atoms: _315  and  _316
REMARK  130  A    between atoms: _318  and  _320
REMARK  131  A    between atoms: _320  and  _321
REMARK  132  A    between atoms: _320  and  _323
REMARK  133  A    between atoms: _323  and  _324
REMARK  134  A    between atoms: _330  and  _332
REMARK  135  A    between atoms: _332  and  _333
REMARK  136  A    between atoms: _332  and  _335
REMARK  137  A    between atoms: _335  and  _336
REMARK  138  A    between atoms: _339  and  _341
REMARK  139  A    between atoms: _341  and  _342
REMARK  140  A    between atoms: _341  and  _344
REMARK  141  A    between atoms: _344  and  _345
REMARK  142  A    between atoms: _345  and  _346
REMARK  143  A    between atoms: _349  and  _351
REMARK  144  A    between atoms: _351  and  _352
REMARK  145  A    between atoms: _351  and  _354
REMARK  146  A    between atoms: _354  and  _355
REMARK  147  A    between atoms: _358  and  _360
REMARK  148  A    between atoms: _360  and  _361
REMARK  149  A    between atoms: _360  and  _363
REMARK  150  A    between atoms: _363  and  _364
REMARK  151  A    between atoms: _367  and  _369
REMARK  152  A    between atoms: _369  and  _370
REMARK  153  A    between atoms: _372  and  _374
REMARK  154  A    between atoms: _374  and  _375
REMARK  155  A    between atoms: _374  and  _377
REMARK  156  A    between atoms: _380  and  _382
REMARK  157  A    between atoms: _382  and  _383
REMARK  158  A    between atoms: _382  and  _385
REMARK  159  A    between atoms: _385  and  _386
REMARK  160  A    between atoms: _388  and  _390
REMARK  161  A    between atoms: _390  and  _391
REMARK  162  A    between atoms: _390  and  _393
REMARK  163  A    between atoms: _393  and  _394
REMARK  164  A    between atoms: _394  and  _395
REMARK  165  A    between atoms: _397  and  _399
REMARK  166  A    between atoms: _399  and  _400
REMARK  167  A    between atoms: _399  and  _402
REMARK  168  A    between atoms: _402  and  _403
REMARK  169  A    between atoms: _408  and  _409
REMARK  170  A    between atoms: _411  and  _413
REMARK  171  A    between atoms: _413  and  _414
REMARK  172  A    between atoms: _413  and  _416
REMARK  173  A    between atoms: _416  and  _417
REMARK  174  A    between atoms: _420  and  _422
REMARK  175  A    between atoms: _422  and  _423
REMARK  176  A    between atoms: _422  and  _425
REMARK  177  A    between atoms: _425  and  _426
REMARK  178  A    between atoms: _428  and  _430
REMARK  179  A    between atoms: _430  and  _431
REMARK  180  A    between atoms: _430  and  _433
REMARK  181  A    between atoms: _433  and  _434
REMARK  182  A    between atoms: _437  and  _439
REMARK  183  A    between atoms: _439  and  _440
REMARK  184  A    between atoms: _439  and  _442
REMARK  185  A    between atoms: _442  and  _443
REMARK  186  A    between atoms: _448  and  _449
REMARK  187  A    between atoms: _451  and  _453
REMARK  188  A    between atoms: _453  and  _454
REMARK  189  A    between atoms: _453  and  _456
REMARK  190  A    between atoms: _456  and  _457
REMARK  191  A    between atoms: _459  and  _461
REMARK  192  A    between atoms: _461  and  _462
REMARK  193  A    between atoms: _461  and  _464
REMARK  194  A    between atoms: _464  and  _465
REMARK  195  A    between atoms: _471  and  _473
REMARK  196  A    between atoms: _473  and  _474
REMARK  197  A    between atoms: _473  and  _476
REMARK  198  A    between atoms: _476  and  _477
REMARK  199  A    between atoms: _477  and  _478
REMARK  200  A    between atoms: _478  and  _479
REMARK  201  A    between atoms: _488  and  _490
REMARK  202  A    between atoms: _490  and  _491
REMARK  203  A    between atoms: _490  and  _493
REMARK  204  A    between atoms: _496  and  _498
REMARK  205  A    between atoms: _498  and  _499
REMARK  206  A    between atoms: _501  and  _503
REMARK  207  A    between atoms: _503  and  _504
REMARK  208  A    between atoms: _503  and  _506
REMARK  209  A    between atoms: _506  and  _507
REMARK  210  A    between atoms: _510  and  _512
REMARK  211  A    between atoms: _512  and  _513
REMARK  212  A    between atoms: _512  and  _515
REMARK  213  A    between atoms: _515  and  _516
REMARK  214  A    between atoms: _516  and  _517
REMARK  215  A    between atoms: _519  and  _521
REMARK  216  A    between atoms: _521  and  _522
REMARK  217  A    between atoms: _521  and  _524
REMARK  218  A    between atoms: _524  and  _525
REMARK  219  A    between atoms: _531  and  _533
REMARK  220  A    between atoms: _533  and  _534
REMARK  221  A    between atoms: _533  and  _536
REMARK  222  A    between atoms: _536  and  _537
REMARK  223  A    between atoms: _542  and  _544
REMARK  224  A    between atoms: _544  and  _545
REMARK  225  A    between atoms: _544  and  _547
REMARK  226  A    between atoms: _547  and  _548
REMARK  227  A    between atoms: _558  and  _560
REMARK  228  A    between atoms: _560  and  _561
REMARK  229  A    between atoms: _560  and  _563
REMARK  230  A    between atoms: _566  and  _568
REMARK  231  A    between atoms: _568  and  _569
REMARK  232  A    between atoms: _568  and  _571
REMARK  233  A    between atoms: _571  and  _572
REMARK  234  A    between atoms: _575  and  _577
REMARK  235  A    between atoms: _577  and  _578
REMARK  236  A    between atoms: _577  and  _580
REMARK  237  A    between atoms: _580  and  _581
REMARK  238  A    between atoms: _581  and  _582
REMARK  239  A    between atoms: _584  and  _586
REMARK  240  A    between atoms: _586  and  _587
REMARK  241  A    between atoms: _586  and  _589
REMARK  242  A    between atoms: _589  and  _590
REMARK  243  A    between atoms: _593  and  _595
REMARK  244  A    between atoms: _595  and  _596
REMARK  245  A    between atoms: _595  and  _598
REMARK  246  A    between atoms: _598  and  _599
REMARK  247  A    between atoms: _602  and  _604
REMARK  248  A    between atoms: _604  and  _605
REMARK  249  A    between atoms: _607  and  _609
REMARK  250  A    between atoms: _609  and  _610
REMARK  251  A    between atoms: _609  and  _612
REMARK  252  A    between atoms: _612  and  _613
REMARK  253  A    between atoms: _615  and  _617
REMARK  254  A    between atoms: _617  and  _618
REMARK  255  A    between atoms: _617  and  _620
REMARK  256  A    between atoms: _620  and  _621
REMARK  257  A    between atoms: _631  and  _633
REMARK  258  A    between atoms: _633  and  _634
REMARK  259  A    between atoms: _633  and  _636
REMARK  260  A    between atoms: _636  and  _637
REMARK  261  A    between atoms: _639  and  _641
REMARK  262  A    between atoms: _641  and  _642
REMARK  263  A    between atoms: _641  and  _644
REMARK  264  A    between atoms: _644  and  _645
REMARK  265  A    between atoms: _648  and  _650
REMARK  266  A    between atoms: _650  and  _651
REMARK  267  A    between atoms: _654  and  _656
REMARK  268  A    between atoms: _656  and  _657
REMARK  269  A    between atoms: _656  and  _659
REMARK  270  A    between atoms: _659  and  _660
REMARK  271  A    between atoms: _662  and  _664
REMARK  272  A    between atoms: _664  and  _665
REMARK  273  A    between atoms: _664  and  _667
REMARK  274  A    between atoms: _667  and  _668
REMARK  275  A    between atoms: _668  and  _669
REMARK  276  A    between atoms: _673  and  _674
REMARK  277  A    between atoms: _679  and  _681
REMARK  278  A    between atoms: _681  and  _682
REMARK  279  A    between atoms: _681  and  _684
REMARK  280  A    between atoms: _684  and  _685
REMARK  281  A    between atoms: _687  and  _689
REMARK  282  A    between atoms: _689  and  _690
REMARK  283  A    between atoms: _689  and  _692
REMARK  284  A    between atoms: _692  and  _693
REMARK  285  A    between atoms: _693  and  _694
REMARK  286  A    between atoms: _699  and  _701
REMARK  287  A    between atoms: _701  and  _702
REMARK  288  A    between atoms: _701  and  _704
REMARK  289  A    between atoms: _704  and  _705
REMARK  290  A    between atoms: _705  and  _706
REMARK  291  A    between atoms: _711  and  _713
REMARK  292  A    between atoms: _713  and  _714
REMARK  293  A    between atoms: _713  and  _716
REMARK  294  A    between atoms: _716  and  _717
REMARK  295  A    between atoms: _720  and  _722
REMARK  296  A    between atoms: _722  and  _723
REMARK  297  A    between atoms: _722  and  _725
REMARK  298  A    between atoms: _725  and  _726
REMARK  299  A    between atoms: _729  and  _731
REMARK  300  A    between atoms: _731  and  _732
REMARK  301  A    between atoms: _731  and  _734
REMARK  302  A    between atoms: _734  and  _735
REMARK  303  A    between atoms: _741  and  _743
REMARK  304  A    between atoms: _743  and  _744
REMARK  305  A    between atoms: _743  and  _746
REMARK  306  A    between atoms: _746  and  _747
REMARK  307  A    between atoms: _752  and  _753
REMARK  308  A    between atoms: _755  and  _757
REMARK  309  A    between atoms: _757  and  _758
REMARK  310  A    between atoms: _757  and  _760
REMARK  311  A    between atoms: _760  and  _761
REMARK  312  A    between atoms: _767  and  _769
REMARK  313  A    between atoms: _769  and  _770
REMARK  314  A    between atoms: _769  and  _772
REMARK  315  A    between atoms: _772  and  _773
REMARK  316  A    between atoms: _778  and  _780
REMARK  317  A    between atoms: _780  and  _781
REMARK  318  A    between atoms: _780  and  _783
REMARK  319  A    between atoms: _783  and  _784
REMARK  320  A    between atoms: _784  and  _785
REMARK                            x       y       z     vdW  Elec       q    Type
REMARK                         _______ _______ _______ _____ _____    ______ ____
ROOT
ATOM      1  O   HOH     1       7.813  52.933  31.268  0.00  0.00    +0.000 OA
ENDROOT
TORSDOF 0
REMARK  Name = ../refined-set-2016/3drf/3drf_pocket.pdb
REMARK  320 active torsions:
REMARK  status: ('A' for Active; 'I' for Inactive)
REMARK    1  A    between atoms: _1  and  _3
REMARK    2  A    between atoms: _3  and  _4
REMARK    3  A    between atoms: _3  and  _6
REMARK    4  A    between atoms: _6  and  _7
REMARK    5  A    between atoms: _12  and  _13
REMARK    6  A    between atoms: _15  and  _17
REMARK    7  A    between atoms: _17  and  _18
REMARK    8  A    between atoms: _17  and  _20
REMARK    9  A    between atoms: _20  and  _21
REMARK   10  A    between atoms: _21  and  _22
REMARK   11  A    between atoms: _27  and  _29
REMARK   12  A    between atoms: _29  and  _30
REMARK   13  A    between atoms: _29  and  _32
REMARK   14  A    between atoms: _32  and  _33
REMARK   15  A    between atoms: _35  and  _37
REMARK   16  A    between atoms: _37  and  _38
REMARK   17  A    between atoms: _37  and  _40
REMARK   18  A    between atoms: _40  and  _41
REMARK   19  A    between atoms: _44  and  _46
REMARK   20  A    between atoms: _46  and  _47
REMARK   21  A    between atoms: _46  and  _49
REMARK   22  A    between atoms: _49  and  _50
REMARK   23  A    between atoms: _52  and  _54
REMARK   24  A    between atoms: _54  and  _55
REMARK   25  A    between atoms: _54  and  _57
REMARK   26  A    between atoms: _57  and  _58
REMARK   27  A    between atoms: _60  and  _62
REMARK   28  A    between atoms: _62  and  _63
REMARK   29  A    between atoms: _65  and  _67
REMARK   30  A    between atoms: _67  and  _68
REMARK   31  A    between atoms: _67  and  _70
REMARK   32  A    between atoms: _70  and  _71
REMARK   33  A    between atoms: _73  and  _75
REMARK   34  A    between atoms: _75  and  _76
REMARK   35  A    between atoms: _75  and  _78
REMARK   36  A    between atoms: _78  and  _79
REMARK   37  A    between atoms: _84  and  _86
REMARK   38  A    between atoms: _86  and  _87
REMARK   39  A    between atoms: _86  and  _89
REMARK   40  A    between atoms: _89  and  _90
REMARK   41  A    between atoms: _93  and  _95
REMARK   42  A    between atoms: _95  and  _96
REMARK   43  A    between atoms: _99  and  _101
REMARK   44  A    between atoms: _101  and  _102
REMARK   45  A    between atoms: _101  and  _104
REMARK   46  A    between atoms: _104  and  _105
REMARK   47  A    between atoms: _108  and  _110
REMARK   48  A    between atoms: _110  and  _111
REMARK   49  A    between atoms: _110  and  _113
REMARK   50  A    between atoms: _113  and  _114
REMARK   51  A    between atoms: _120  and  _122
REMARK   52  A    between atoms: _122  and  _123
REMARK   53  A    between atoms: _126  and  _128
REMARK   54  A    between atoms: _128  and  _129
REMARK   55  A    between atoms: _128  and  _131
REMARK   56  A    between atoms: _131  and  _132
REMARK   57  A    between atoms: _135  and  _137
REMARK   58  A    between atoms: _137  and  _138
REMARK   59  A    between atoms: _140  and  _142
REMARK   60  A    between atoms: _142  and  _143
REMARK   61  A    between atoms: _142  and  _145
REMARK   62  A    between atoms: _145  and  _146
REMARK   63  A    between atoms: _146  and  _147
REMARK   64  A    between atoms: _152  and  _154
REMARK   65  A    between atoms: _154  and  _155
REMARK   66  A    between atoms: _157  and  _159
REMARK   67  A    between atoms: _159  and  _160
REMARK   68  A    between atoms: _159  and  _162
REMARK   69  A    between atoms: _162  and  _163
REMARK   70  A    between atoms: _166  and  _168
REMARK   71  A    between atoms: _168  and  _169
REMARK   72  A    between atoms: _168  and  _171
REMARK   73  A    between atoms: _171  and  _172
REMARK   74  A    between atoms: _178  and  _180
REMARK   75  A    between atoms: _180  and  _181
REMARK   76  A    between atoms: _180  and  _183
REMARK   77  A    between atoms: _183  and  _184
REMARK   78  A    between atoms: _187  and  _189
REMARK   79  A    between atoms: _189  and  _190
REMARK   80  A    between atoms: _189  and  _192
REMARK   81  A    between atoms: _192  and  _193
REMARK   82  A    between atoms: _199  and  _201
REMARK   83  A    between atoms: _201  and  _202
REMARK   84  A    between atoms: _201  and  _204
REMARK   85  A    between atoms: _204  and  _205
REMARK   86  A    between atoms: _211  and  _213
REMARK   87  A    between atoms: _213  and  _214
REMARK   88  A    between atoms: _213  and  _216
REMARK   89  A    between atoms: _216  and  _217
REMARK   90  A    between atoms: _220  and  _222
REMARK   91  A    between atoms: _222  and  _223
REMARK   92  A    between atoms: _222  and  _225
REMARK   93  A    between atoms: _225  and  _226
REMARK   94  A    between atoms: _229  and  _231
REMARK   95  A    between atoms: _231  and  _232
REMARK   96  A    between atoms: _231  and  _234
REMARK   97  A    between atoms: _234  and  _235
REMARK   98  A    between atoms: _235  and  _236
REMARK   99  A    between atoms: _236  and  _237
REMARK  100  A    between atoms: _246  and  _248
REMARK  101  A    between atoms: _248  and  _249
REMARK  102  A    between atoms: _248  and  _251
REMARK  103  A    between atoms: _251  and  _252
REMARK  104  A    between atoms: _255  and  _257
REMARK  105  A    between atoms: _257  and  _258
REMARK  106  A    between atoms: _257  and  _260
REMARK  107  A    between atoms: _260  and  _261
REMARK  108  A    between atoms: _263  and  _265
REMARK  109  A    between atoms: _265  and  _266
REMARK  110  A    between atoms: _265  and  _268
REMARK  111  A    between atoms: _268  and  _269
REMARK  112  A    between atoms: _269  and  _270
REMARK  113  A    between atoms: _275  and  _277
REMARK  114  A    between atoms: _277  and  _278
REMARK  115  A    between atoms: _277  and  _280
REMARK  116  A    between atoms: _280  and  _281
REMARK  117  A    between atoms: _283  and  _285
REMARK  118  A    between atoms: _285  and  _286
REMARK  119  A    between atoms: _288  and  _290
REMARK  120  A    between atoms: _290  and  _291
REMARK  121  A    between atoms: _290  and  _293
REMARK  122  A    between atoms: _293  and  _294
REMARK  123  A    between atoms: _299  and  _301
REMARK  124  A    between atoms: _301  and  _302
REMARK  125  A    between atoms: _304  and  _306
REMARK  126  A    between atoms: _306  and  _307
REMARK  127  A    between atoms: _306  and  _309
REMARK  128  A    between atoms: _309  and  _310
REMARK  129  A    between atoms: _315  and  _316
REMARK  130  A    between atoms: _318  and  _320
REMARK  131  A    between atoms: _320  and  _321
REMARK  132  A    between atoms: _320  and  _323
REMARK  133  A    between atoms: _323  and  _324
REMARK  134  A    between atoms: _330  and  _332
REMARK  135  A    between atoms: _332  and  _333
REMARK  136  A    between atoms: _332  and  _335
REMARK  137  A    between atoms: _335  and  _336
REMARK  138  A    between atoms: _339  and  _341
REMARK  139  A    between atoms: _341  and  _342
REMARK  140  A    between atoms: _341  and  _344
REMARK  141  A    between atoms: _344  and  _345
REMARK  142  A    between atoms: _345  and  _346
REMARK  143  A    between atoms: _349  and  _351
REMARK  144  A    between atoms: _351  and  _352
REMARK  145  A    between atoms: _351  and  _354
REMARK  146  A    between atoms: _354  and  _355
REMARK  147  A    between atoms: _358  and  _360
REMARK  148  A    between atoms: _360  and  _361
REMARK  149  A    between atoms: _360  and  _363
REMARK  150  A    between atoms: _363  and  _364
REMARK  151  A    between atoms: _367  and  _369
REMARK  152  A    between atoms: _369  and  _370
REMARK  153  A    between atoms: _372  and  _374
REMARK  154  A    between atoms: _374  and  _375
REMARK  155  A    between atoms: _374  and  _377
REMARK  156  A    between atoms: _380  and  _382
REMARK  157  A    between atoms: _382  and  _383
REMARK  158  A    between atoms: _382  and  _385
REMARK  159  A    between atoms: _385  and  _386
REMARK  160  A    between atoms: _388  and  _390
REMARK  161  A    between atoms: _390  and  _391
REMARK  162  A    between atoms: _390  and  _393
REMARK  163  A    between atoms: _393  and  _394
REMARK  164  A    between atoms: _394  and  _395
REMARK  165  A    between atoms: _397  and  _399
REMARK  166  A    between atoms: _399  and  _400
REMARK  167  A    between atoms: _399  and  _402
REMARK  168  A    between atoms: _402  and  _403
REMARK  169  A    between atoms: _408  and  _409
REMARK  170  A    between atoms: _411  and  _413
REMARK  171  A    between atoms: _413  and  _414
REMARK  172  A    between atoms: _413  and  _416
REMARK  173  A    between atoms: _416  and  _417
REMARK  174  A    between atoms: _420  and  _422
REMARK  175  A    between atoms: _422  and  _423
REMARK  176  A    between atoms: _422  and  _425
REMARK  177  A    between atoms: _425  and  _426
REMARK  178  A    between atoms: _428  and  _430
REMARK  179  A    between atoms: _430  and  _431
REMARK  180  A    between atoms: _430  and  _433
REMARK  181  A    between atoms: _433  and  _434
REMARK  182  A    between atoms: _437  and  _439
REMARK  183  A    between atoms: _439  and  _440
REMARK  184  A    between atoms: _439  and  _442
REMARK  185  A    between atoms: _442  and  _443
REMARK  186  A    between atoms: _448  and  _449
REMARK  187  A    between atoms: _451  and  _453
REMARK  188  A    between atoms: _453  and  _454
REMARK  189  A    between atoms: _453  and  _456
REMARK  190  A    between atoms: _456  and  _457
REMARK  191  A    between atoms: _459  and  _461
REMARK  192  A    between atoms: _461  and  _462
REMARK  193  A    between atoms: _461  and  _464
REMARK  194  A    between atoms: _464  and  _465
REMARK  195  A    between atoms: _471  and  _473
REMARK  196  A    between atoms: _473  and  _474
REMARK  197  A    between atoms: _473  and  _476
REMARK  198  A    between atoms: _476  and  _477
REMARK  199  A    between atoms: _477  and  _478
REMARK  200  A    between atoms: _478  and  _479
REMARK  201  A    between atoms: _488  and  _490
REMARK  202  A    between atoms: _490  and  _491
REMARK  203  A    between atoms: _490  and  _493
REMARK  204  A    between atoms: _496  and  _498
REMARK  205  A    between atoms: _498  and  _499
REMARK  206  A    between atoms: _501  and  _503
REMARK  207  A    between atoms: _503  and  _504
REMARK  208  A    between atoms: _503  and  _506
REMARK  209  A    between atoms: _506  and  _507
REMARK  210  A    between atoms: _510  and  _512
REMARK  211  A    between atoms: _512  and  _513
REMARK  212  A    between atoms: _512  and  _515
REMARK  213  A    between atoms: _515  and  _516
REMARK  214  A    between atoms: _516  and  _517
REMARK  215  A    between atoms: _519  and  _521
REMARK  216  A    between atoms: _521  and  _522
REMARK  217  A    between atoms: _521  and  _524
REMARK  218  A    between atoms: _524  and  _525
REMARK  219  A    between atoms: _531  and  _533
REMARK  220  A    between atoms: _533  and  _534
REMARK  221  A    between atoms: _533  and  _536
REMARK  222  A    between atoms: _536  and  _537
REMARK  223  A    between atoms: _542  and  _544
REMARK  224  A    between atoms: _544  and  _545
REMARK  225  A    between atoms: _544  and  _547
REMARK  226  A    between atoms: _547  and  _548
REMARK  227  A    between atoms: _558  and  _560
REMARK  228  A    between atoms: _560  and  _561
REMARK  229  A    between atoms: _560  and  _563
REMARK  230  A    between atoms: _566  and  _568
REMARK  231  A    between atoms: _568  and  _569
REMARK  232  A    between atoms: _568  and  _571
REMARK  233  A    between atoms: _571  and  _572
REMARK  234  A    between atoms: _575  and  _577
REMARK  235  A    between atoms: _577  and  _578
REMARK  236  A    between atoms: _577  and  _580
REMARK  237  A    between atoms: _580  and  _581
REMARK  238  A    between atoms: _581  and  _582
REMARK  239  A    between atoms: _584  and  _586
REMARK  240  A    between atoms: _586  and  _587
REMARK  241  A    between atoms: _586  and  _589
REMARK  242  A    between atoms: _589  and  _590
REMARK  243  A    between atoms: _593  and  _595
REMARK  244  A    between atoms: _595  and  _596
REMARK  245  A    between atoms: _595  and  _598
REMARK  246  A    between atoms: _598  and  _599
REMARK  247  A    between atoms: _602  and  _604
REMARK  248  A    between atoms: _604  and  _605
REMARK  249  A    between atoms: _607  and  _609
REMARK  250  A    between atoms: _609  and  _610
REMARK  251  A    between atoms: _609  and  _612
REMARK  252  A    between atoms: _612  and  _613
REMARK  253  A    between atoms: _615  and  _617
REMARK  254  A    between atoms: _617  and  _618
REMARK  255  A    between atoms: _617  and  _620
REMARK  256  A    between atoms: _620  and  _621
REMARK  257  A    between atoms: _631  and  _633
REMARK  258  A    between atoms: _633  and  _634
REMARK  259  A    between atoms: _633  and  _636
REMARK  260  A    between atoms: _636  and  _637
REMARK  261  A    between atoms: _639  and  _641
REMARK  262  A    between atoms: _641  and  _642
REMARK  263  A    between atoms: _641  and  _644
REMARK  264  A    between atoms: _644  and  _645
REMARK  265  A    between atoms: _648  and  _650
REMARK  266  A    between atoms: _650  and  _651
REMARK  267  A    between atoms: _654  and  _656
REMARK  268  A    between atoms: _656  and  _657
REMARK  269  A    between atoms: _656  and  _659
REMARK  270  A    between atoms: _659  and  _660
REMARK  271  A    between atoms: _662  and  _664
REMARK  272  A    between atoms: _664  and  _665
REMARK  273  A    between atoms: _664  and  _667
REMARK  274  A    between atoms: _667  and  _668
REMARK  275  A    between atoms: _668  and  _669
REMARK  276  A    between atoms: _673  and  _674
REMARK  277  A    between atoms: _679  and  _681
REMARK  278  A    between atoms: _681  and  _682
REMARK  279  A    between atoms: _681  and  _684
REMARK  280  A    between atoms: _684  and  _685
REMARK  281  A    between atoms: _687  and  _689
REMARK  282  A    between atoms: _689  and  _690
REMARK  283  A    between atoms: _689  and  _692
REMARK  284  A    between atoms: _692  and  _693
REMARK  285  A    between atoms: _693  and  _694
REMARK  286  A    between atoms: _699  and  _701
REMARK  287  A    between atoms: _701  and  _702
REMARK  288  A    between atoms: _701  and  _704
REMARK  289  A    between atoms: _704  and  _705
REMARK  290  A    between atoms: _705  and  _706
REMARK  291  A    between atoms: _711  and  _713
REMARK  292  A    between atoms: _713  and  _714
REMARK  293  A    between atoms: _713  and  _716
REMARK  294  A    between atoms: _716  and  _717
REMARK  295  A    between atoms: _720  and  _722
REMARK  296  A    between atoms: _722  and  _723
REMARK  297  A    between atoms: _722  and  _725
REMARK  298  A    between atoms: _725  and  _726
REMARK  299  A    between atoms: _729  and  _731
REMARK  300  A    between atoms: _731  and  _732
REMARK  301  A    between atoms: _731  and  _734
REMARK  302  A    between atoms: _734  and  _735
REMARK  303  A    between atoms: _741  and  _743
REMARK  304  A    between atoms: _743  and  _744
REMARK  305  A    between atoms: _743  and  _746
REMARK  306  A    between atoms: _746  and  _747
REMARK  307  A    between atoms: _752  and  _753
REMARK  308  A    between atoms: _755  and  _757
REMARK  309  A    between atoms: _757  and  _758
REMARK  310  A    between atoms: _757  and  _760
REMARK  311  A    between atoms: _760  and  _761
REMARK  312  A    between atoms: _767  and  _769
REMARK  313  A    between atoms: _769  and  _770
REMARK  314  A    between atoms: _769  and  _772
REMARK  315  A    between atoms: _772  and  _773
REMARK  316  A    between atoms: _778  and  _780
REMARK  317  A    between atoms: _780  and  _781
REMARK  318  A    between atoms: _780  and  _783
REMARK  319  A    between atoms: _783  and  _784
REMARK  320  A    between atoms: _784  and  _785
REMARK                            x       y       z     vdW  Elec       q    Type
REMARK                         _______ _______ _______ _____ _____    ______ ____
ROOT
ATOM      1  O   HOH     1      19.739  43.725  29.908  0.00  0.00    +0.000 OA
ENDROOT
TORSDOF 0
REMARK  Name = ../refined-set-2016/3drf/3drf_pocket.pdb
REMARK  320 active torsions:
REMARK  status: ('A' for Active; 'I' for Inactive)
REMARK    1  A    between atoms: _1  and  _3
REMARK    2  A    between atoms: _3  and  _4
REMARK    3  A    between atoms: _3  and  _6
REMARK    4  A    between atoms: _6  and  _7
REMARK    5  A    between atoms: _12  and  _13
REMARK    6  A    between atoms: _15  and  _17
REMARK    7  A    between atoms: _17  and  _18
REMARK    8  A    between atoms: _17  and  _20
REMARK    9  A    between atoms: _20  and  _21
REMARK   10  A    between atoms: _21  and  _22
REMARK   11  A    between atoms: _27  and  _29
REMARK   12  A    between atoms: _29  and  _30
REMARK   13  A    between atoms: _29  and  _32
REMARK   14  A    between atoms: _32  and  _33
REMARK   15  A    between atoms: _35  and  _37
REMARK   16  A    between atoms: _37  and  _38
REMARK   17  A    between atoms: _37  and  _40
REMARK   18  A    between atoms: _40  and  _41
REMARK   19  A    between atoms: _44  and  _46
REMARK   20  A    between atoms: _46  and  _47
REMARK   21  A    between atoms: _46  and  _49
REMARK   22  A    between atoms: _49  and  _50
REMARK   23  A    between atoms: _52  and  _54
REMARK   24  A    between atoms: _54  and  _55
REMARK   25  A    between atoms: _54  and  _57
REMARK   26  A    between atoms: _57  and  _58
REMARK   27  A    between atoms: _60  and  _62
REMARK   28  A    between atoms: _62  and  _63
REMARK   29  A    between atoms: _65  and  _67
REMARK   30  A    between atoms: _67  and  _68
REMARK   31  A    between atoms: _67  and  _70
REMARK   32  A    between atoms: _70  and  _71
REMARK   33  A    between atoms: _73  and  _75
REMARK   34  A    between atoms: _75  and  _76
REMARK   35  A    between atoms: _75  and  _78
REMARK   36  A    between atoms: _78  and  _79
REMARK   37  A    between atoms: _84  and  _86
REMARK   38  A    between atoms: _86  and  _87
REMARK   39  A    between atoms: _86  and  _89
REMARK   40  A    between atoms: _89  and  _90
REMARK   41  A    between atoms: _93  and  _95
REMARK   42  A    between atoms: _95  and  _96
REMARK   43  A    between atoms: _99  and  _101
REMARK   44  A    between atoms: _101  and  _102
REMARK   45  A    between atoms: _101  and  _104
REMARK   46  A    between atoms: _104  and  _105
REMARK   47  A    between atoms: _108  and  _110
REMARK   48  A    between atoms: _110  and  _111
REMARK   49  A    between atoms: _110  and  _113
REMARK   50  A    between atoms: _113  and  _114
REMARK   51  A    between atoms: _120  and  _122
REMARK   52  A    between atoms: _122  and  _123
REMARK   53  A    between atoms: _126  and  _128
REMARK   54  A    between atoms: _128  and  _129
REMARK   55  A    between atoms: _128  and  _131
REMARK   56  A    between atoms: _131  and  _132
REMARK   57  A    between atoms: _135  and  _137
REMARK   58  A    between atoms: _137  and  _138
REMARK   59  A    between atoms: _140  and  _142
REMARK   60  A    between atoms: _142  and  _143
REMARK   61  A    between atoms: _142  and  _145
REMARK   62  A    between atoms: _145  and  _146
REMARK   63  A    between atoms: _146  and  _147
REMARK   64  A    between atoms: _152  and  _154
REMARK   65  A    between atoms: _154  and  _155
REMARK   66  A    between atoms: _157  and  _159
REMARK   67  A    between atoms: _159  and  _160
REMARK   68  A    between atoms: _159  and  _162
REMARK   69  A    between atoms: _162  and  _163
REMARK   70  A    between atoms: _166  and  _168
REMARK   71  A    between atoms: _168  and  _169
REMARK   72  A    between atoms: _168  and  _171
REMARK   73  A    between atoms: _171  and  _172
REMARK   74  A    between atoms: _178  and  _180
REMARK   75  A    between atoms: _180  and  _181
REMARK   76  A    between atoms: _180  and  _183
REMARK   77  A    between atoms: _183  and  _184
REMARK   78  A    between atoms: _187  and  _189
REMARK   79  A    between atoms: _189  and  _190
REMARK   80  A    between atoms: _189  and  _192
REMARK   81  A    between atoms: _192  and  _193
REMARK   82  A    between atoms: _199  and  _201
REMARK   83  A    between atoms: _201  and  _202
REMARK   84  A    between atoms: _201  and  _204
REMARK   85  A    between atoms: _204  and  _205
REMARK   86  A    between atoms: _211  and  _213
REMARK   87  A    between atoms: _213  and  _214
REMARK   88  A    between atoms: _213  and  _216
REMARK   89  A    between atoms: _216  and  _217
REMARK   90  A    between atoms: _220  and  _222
REMARK   91  A    between atoms: _222  and  _223
REMARK   92  A    between atoms: _222  and  _225
REMARK   93  A    between atoms: _225  and  _226
REMARK   94  A    between atoms: _229  and  _231
REMARK   95  A    between atoms: _231  and  _232
REMARK   96  A    between atoms: _231  and  _234
REMARK   97  A    between atoms: _234  and  _235
REMARK   98  A    between atoms: _235  and  _236
REMARK   99  A    between atoms: _236  and  _237
REMARK  100  A    between atoms: _246  and  _248
REMARK  101  A    between atoms: _248  and  _249
REMARK  102  A    between atoms: _248  and  _251
REMARK  103  A    between atoms: _251  and  _252
REMARK  104  A    between atoms: _255  and  _257
REMARK  105  A    between atoms: _257  and  _258
REMARK  106  A    between atoms: _257  and  _260
REMARK  107  A    between atoms: _260  and  _261
REMARK  108  A    between atoms: _263  and  _265
REMARK  109  A    between atoms: _265  and  _266
REMARK  110  A    between atoms: _265  and  _268
REMARK  111  A    between atoms: _268  and  _269
REMARK  112  A    between atoms: _269  and  _270
REMARK  113  A    between atoms: _275  and  _277
REMARK  114  A    between atoms: _277  and  _278
REMARK  115  A    between atoms: _277  and  _280
REMARK  116  A    between atoms: _280  and  _281
REMARK  117  A    between atoms: _283  and  _285
REMARK  118  A    between atoms: _285  and  _286
REMARK  119  A    between atoms: _288  and  _290
REMARK  120  A    between atoms: _290  and  _291
REMARK  121  A    between atoms: _290  and  _293
REMARK  122  A    between atoms: _293  and  _294
REMARK  123  A    between atoms: _299  and  _301
REMARK  124  A    between atoms: _301  and  _302
REMARK  125  A    between atoms: _304  and  _306
REMARK  126  A    between atoms: _306  and  _307
REMARK  127  A    between atoms: _306  and  _309
REMARK  128  A    between atoms: _309  and  _310
REMARK  129  A    between atoms: _315  and  _316
REMARK  130  A    between atoms: _318  and  _320
REMARK  131  A    between atoms: _320  and  _321
REMARK  132  A    between atoms: _320  and  _323
REMARK  133  A    between atoms: _323  and  _324
REMARK  134  A    between atoms: _330  and  _332
REMARK  135  A    between atoms: _332  and  _333
REMARK  136  A    between atoms: _332  and  _335
REMARK  137  A    between atoms: _335  and  _336
REMARK  138  A    between atoms: _339  and  _341
REMARK  139  A    between atoms: _341  and  _342
REMARK  140  A    between atoms: _341  and  _344
REMARK  141  A    between atoms: _344  and  _345
REMARK  142  A    between atoms: _345  and  _346
REMARK  143  A    between atoms: _349  and  _351
REMARK  144  A    between atoms: _351  and  _352
REMARK  145  A    between atoms: _351  and  _354
REMARK  146  A    between atoms: _354  and  _355
REMARK  147  A    between atoms: _358  and  _360
REMARK  148  A    between atoms: _360  and  _361
REMARK  149  A    between atoms: _360  and  _363
REMARK  150  A    between atoms: _363  and  _364
REMARK  151  A    between atoms: _367  and  _369
REMARK  152  A    between atoms: _369  and  _370
REMARK  153  A    between atoms: _372  and  _374
REMARK  154  A    between atoms: _374  and  _375
REMARK  155  A    between atoms: _374  and  _377
REMARK  156  A    between atoms: _380  and  _382
REMARK  157  A    between atoms: _382  and  _383
REMARK  158  A    between atoms: _382  and  _385
REMARK  159  A    between atoms: _385  and  _386
REMARK  160  A    between atoms: _388  and  _390
REMARK  161  A    between atoms: _390  and  _391
REMARK  162  A    between atoms: _390  and  _393
REMARK  163  A    between atoms: _393  and  _394
REMARK  164  A    between atoms: _394  and  _395
REMARK  165  A    between atoms: _397  and  _399
REMARK  166  A    between atoms: _399  and  _400
REMARK  167  A    between atoms: _399  and  _402
REMARK  168  A    between atoms: _402  and  _403
REMARK  169  A    between atoms: _408  and  _409
REMARK  170  A    between atoms: _411  and  _413
REMARK  171  A    between atoms: _413  and  _414
REMARK  172  A    between atoms: _413  and  _416
REMARK  173  A    between atoms: _416  and  _417
REMARK  174  A    between atoms: _420  and  _422
REMARK  175  A    between atoms: _422  and  _423
REMARK  176  A    between atoms: _422  and  _425
REMARK  177  A    between atoms: _425  and  _426
REMARK  178  A    between atoms: _428  and  _430
REMARK  179  A    between atoms: _430  and  _431
REMARK  180  A    between atoms: _430  and  _433
REMARK  181  A    between atoms: _433  and  _434
REMARK  182  A    between atoms: _437  and  _439
REMARK  183  A    between atoms: _439  and  _440
REMARK  184  A    between atoms: _439  and  _442
REMARK  185  A    between atoms: _442  and  _443
REMARK  186  A    between atoms: _448  and  _449
REMARK  187  A    between atoms: _451  and  _453
REMARK  188  A    between atoms: _453  and  _454
REMARK  189  A    between atoms: _453  and  _456
REMARK  190  A    between atoms: _456  and  _457
REMARK  191  A    between atoms: _459  and  _461
REMARK  192  A    between atoms: _461  and  _462
REMARK  193  A    between atoms: _461  and  _464
REMARK  194  A    between atoms: _464  and  _465
REMARK  195  A    between atoms: _471  and  _473
REMARK  196  A    between atoms: _473  and  _474
REMARK  197  A    between atoms: _473  and  _476
REMARK  198  A    between atoms: _476  and  _477
REMARK  199  A    between atoms: _477  and  _478
REMARK  200  A    between atoms: _478  and  _479
REMARK  201  A    between atoms: _488  and  _490
REMARK  202  A    between atoms: _490  and  _491
REMARK  203  A    between atoms: _490  and  _493
REMARK  204  A    between atoms: _496  and  _498
REMARK  205  A    between atoms: _498  and  _499
REMARK  206  A    between atoms: _501  and  _503
REMARK  207  A    between atoms: _503  and  _504
REMARK  208  A    between atoms: _503  and  _506
REMARK  209  A    between atoms: _506  and  _507
REMARK  210  A    between atoms: _510  and  _512
REMARK  211  A    between atoms: _512  and  _513
REMARK  212  A    between atoms: _512  and  _515
REMARK  213  A    between atoms: _515  and  _516
REMARK  214  A    between atoms: _516  and  _517
REMARK  215  A    between atoms: _519  and  _521
REMARK  216  A    between atoms: _521  and  _522
REMARK  217  A    between atoms: _521  and  _524
REMARK  218  A    between atoms: _524  and  _525
REMARK  219  A    between atoms: _531  and  _533
REMARK  220  A    between atoms: _533  and  _534
REMARK  221  A    between atoms: _533  and  _536
REMARK  222  A    between atoms: _536  and  _537
REMARK  223  A    between atoms: _542  and  _544
REMARK  224  A    between atoms: _544  and  _545
REMARK  225  A    between atoms: _544  and  _547
REMARK  226  A    between atoms: _547  and  _548
REMARK  227  A    between atoms: _558  and  _560
REMARK  228  A    between atoms: _560  and  _561
REMARK  229  A    between atoms: _560  and  _563
REMARK  230  A    between atoms: _566  and  _568
REMARK  231  A    between atoms: _568  and  _569
REMARK  232  A    between atoms: _568  and  _571
REMARK  233  A    between atoms: _571  and  _572
REMARK  234  A    between atoms: _575  and  _577
REMARK  235  A    between atoms: _577  and  _578
REMARK  236  A    between atoms: _577  and  _580
REMARK  237  A    between atoms: _580  and  _581
REMARK  238  A    between atoms: _581  and  _582
REMARK  239  A    between atoms: _584  and  _586
REMARK  240  A    between atoms: _586  and  _587
REMARK  241  A    between atoms: _586  and  _589
REMARK  242  A    between atoms: _589  and  _590
REMARK  243  A    between atoms: _593  and  _595
REMARK  244  A    between atoms: _595  and  _596
REMARK  245  A    between atoms: _595  and  _598
REMARK  246  A    between atoms: _598  and  _599
REMARK  247  A    between atoms: _602  and  _604
REMARK  248  A    between atoms: _604  and  _605
REMARK  249  A    between atoms: _607  and  _609
REMARK  250  A    between atoms: _609  and  _610
REMARK  251  A    between atoms: _609  and  _612
REMARK  252  A    between atoms: _612  and  _613
REMARK  253  A    between atoms: _615  and  _617
REMARK  254  A    between atoms: _617  and  _618
REMARK  255  A    between atoms: _617  and  _620
REMARK  256  A    between atoms: _620  and  _621
REMARK  257  A    between atoms: _631  and  _633
REMARK  258  A    between atoms: _633  and  _634
REMARK  259  A    between atoms: _633  and  _636
REMARK  260  A    between atoms: _636  and  _637
REMARK  261  A    between atoms: _639  and  _641
REMARK  262  A    between atoms: _641  and  _642
REMARK  263  A    between atoms: _641  and  _644
REMARK  264  A    between atoms: _644  and  _645
REMARK  265  A    between atoms: _648  and  _650
REMARK  266  A    between atoms: _650  and  _651
REMARK  267  A    between atoms: _654  and  _656
REMARK  268  A    between atoms: _656  and  _657
REMARK  269  A    between atoms: _656  and  _659
REMARK  270  A    between atoms: _659  and  _660
REMARK  271  A    between atoms: _662  and  _664
REMARK  272  A    between atoms: _664  and  _665
REMARK  273  A    between atoms: _664  and  _667
REMARK  274  A    between atoms: _667  and  _668
REMARK  275  A    between atoms: _668  and  _669
REMARK  276  A    between atoms: _673  and  _674
REMARK  277  A    between atoms: _679  and  _681
REMARK  278  A    between atoms: _681  and  _682
REMARK  279  A    between atoms: _681  and  _684
REMARK  280  A    between atoms: _684  and  _685
REMARK  281  A    between atoms: _687  and  _689
REMARK  282  A    between atoms: _689  and  _690
REMARK  283  A    between atoms: _689  and  _692
REMARK  284  A    between atoms: _692  and  _693
REMARK  285  A    between atoms: _693  and  _694
REMARK  286  A    between atoms: _699  and  _701
REMARK  287  A    between atoms: _701  and  _702
REMARK  288  A    between atoms: _701  and  _704
REMARK  289  A    between atoms: _704  and  _705
REMARK  290  A    between atoms: _705  and  _706
REMARK  291  A    between atoms: _711  and  _713
REMARK  292  A    between atoms: _713  and  _714
REMARK  293  A    between atoms: _713  and  _716
REMARK  294  A    between atoms: _716  and  _717
REMARK  295  A    between atoms: _720  and  _722
REMARK  296  A    between atoms: _722  and  _723
REMARK  297  A    between atoms: _722  and  _725
REMARK  298  A    between atoms: _725  and  _726
REMARK  299  A    between atoms: _729  and  _731
REMARK  300  A    between atoms: _731  and  _732
REMARK  301  A    between atoms: _731  and  _734
REMARK  302  A    between atoms: _734  and  _735
REMARK  303  A    between atoms: _741  and  _743
REMARK  304  A    between atoms: _743  and  _744
REMARK  305  A    between atoms: _743  and  _746
REMARK  306  A    between atoms: _746  and  _747
REMARK  307  A    between atoms: _752  and  _753
REMARK  308  A    between atoms: _755  and  _757
REMARK  309  A    between atoms: _757  and  _758
REMARK  310  A    between atoms: _757  and  _760
REMARK  311  A    between atoms: _760  and  _761
REMARK  312  A    between atoms: _767  and  _769
REMARK  313  A    between atoms: _769  and  _770
REMARK  314  A    between atoms: _769  and  _772
REMARK  315  A    between atoms: _772  and  _773
REMARK  316  A    between atoms: _778  and  _780
REMARK  317  A    between atoms: _780  and  _781
REMARK  318  A    between atoms: _780  and  _783
REMARK  319  A    between atoms: _783  and  _784
REMARK  320  A    between atoms: _784  and  _785
REMARK                            x       y       z     vdW  Elec       q    Type
REMARK                         _______ _______ _______ _____ _____    ______ ____
ROOT
ATOM      1  O   HOH     1      20.490  52.993  22.223  0.00  0.00    +0.000 OA
ENDROOT
TORSDOF 0
REMARK  Name = ../refined-set-2016/3drf/3drf_pocket.pdb
REMARK  320 active torsions:
REMARK  status: ('A' for Active; 'I' for Inactive)
REMARK    1  A    between atoms: _1  and  _3
REMARK    2  A    between atoms: _3  and  _4
REMARK    3  A    between atoms: _3  and  _6
REMARK    4  A    between atoms: _6  and  _7
REMARK    5  A    between atoms: _12  and  _13
REMARK    6  A    between atoms: _15  and  _17
REMARK    7  A    between atoms: _17  and  _18
REMARK    8  A    between atoms: _17  and  _20
REMARK    9  A    between atoms: _20  and  _21
REMARK   10  A    between atoms: _21  and  _22
REMARK   11  A    between atoms: _27  and  _29
REMARK   12  A    between atoms: _29  and  _30
REMARK   13  A    between atoms: _29  and  _32
REMARK   14  A    between atoms: _32  and  _33
REMARK   15  A    between atoms: _35  and  _37
REMARK   16  A    between atoms: _37  and  _38
REMARK   17  A    between atoms: _37  and  _40
REMARK   18  A    between atoms: _40  and  _41
REMARK   19  A    between atoms: _44  and  _46
REMARK   20  A    between atoms: _46  and  _47
REMARK   21  A    between atoms: _46  and  _49
REMARK   22  A    between atoms: _49  and  _50
REMARK   23  A    between atoms: _52  and  _54
REMARK   24  A    between atoms: _54  and  _55
REMARK   25  A    between atoms: _54  and  _57
REMARK   26  A    between atoms: _57  and  _58
REMARK   27  A    between atoms: _60  and  _62
REMARK   28  A    between atoms: _62  and  _63
REMARK   29  A    between atoms: _65  and  _67
REMARK   30  A    between atoms: _67  and  _68
REMARK   31  A    between atoms: _67  and  _70
REMARK   32  A    between atoms: _70  and  _71
REMARK   33  A    between atoms: _73  and  _75
REMARK   34  A    between atoms: _75  and  _76
REMARK   35  A    between atoms: _75  and  _78
REMARK   36  A    between atoms: _78  and  _79
REMARK   37  A    between atoms: _84  and  _86
REMARK   38  A    between atoms: _86  and  _87
REMARK   39  A    between atoms: _86  and  _89
REMARK   40  A    between atoms: _89  and  _90
REMARK   41  A    between atoms: _93  and  _95
REMARK   42  A    between atoms: _95  and  _96
REMARK   43  A    between atoms: _99  and  _101
REMARK   44  A    between atoms: _101  and  _102
REMARK   45  A    between atoms: _101  and  _104
REMARK   46  A    between atoms: _104  and  _105
REMARK   47  A    between atoms: _108  and  _110
REMARK   48  A    between atoms: _110  and  _111
REMARK   49  A    between atoms: _110  and  _113
REMARK   50  A    between atoms: _113  and  _114
REMARK   51  A    between atoms: _120  and  _122
REMARK   52  A    between atoms: _122  and  _123
REMARK   53  A    between atoms: _126  and  _128
REMARK   54  A    between atoms: _128  and  _129
REMARK   55  A    between atoms: _128  and  _131
REMARK   56  A    between atoms: _131  and  _132
REMARK   57  A    between atoms: _135  and  _137
REMARK   58  A    between atoms: _137  and  _138
REMARK   59  A    between atoms: _140  and  _142
REMARK   60  A    between atoms: _142  and  _143
REMARK   61  A    between atoms: _142  and  _145
REMARK   62  A    between atoms: _145  and  _146
REMARK   63  A    between atoms: _146  and  _147
REMARK   64  A    between atoms: _152  and  _154
REMARK   65  A    between atoms: _154  and  _155
REMARK   66  A    between atoms: _157  and  _159
REMARK   67  A    between atoms: _159  and  _160
REMARK   68  A    between atoms: _159  and  _162
REMARK   69  A    between atoms: _162  and  _163
REMARK   70  A    between atoms: _166  and  _168
REMARK   71  A    between atoms: _168  and  _169
REMARK   72  A    between atoms: _168  and  _171
REMARK   73  A    between atoms: _171  and  _172
REMARK   74  A    between atoms: _178  and  _180
REMARK   75  A    between atoms: _180  and  _181
REMARK   76  A    between atoms: _180  and  _183
REMARK   77  A    between atoms: _183  and  _184
REMARK   78  A    between atoms: _187  and  _189
REMARK   79  A    between atoms: _189  and  _190
REMARK   80  A    between atoms: _189  and  _192
REMARK   81  A    between atoms: _192  and  _193
REMARK   82  A    between atoms: _199  and  _201
REMARK   83  A    between atoms: _201  and  _202
REMARK   84  A    between atoms: _201  and  _204
REMARK   85  A    between atoms: _204  and  _205
REMARK   86  A    between atoms: _211  and  _213
REMARK   87  A    between atoms: _213  and  _214
REMARK   88  A    between atoms: _213  and  _216
REMARK   89  A    between atoms: _216  and  _217
REMARK   90  A    between atoms: _220  and  _222
REMARK   91  A    between atoms: _222  and  _223
REMARK   92  A    between atoms: _222  and  _225
REMARK   93  A    between atoms: _225  and  _226
REMARK   94  A    between atoms: _229  and  _231
REMARK   95  A    between atoms: _231  and  _232
REMARK   96  A    between atoms: _231  and  _234
REMARK   97  A    between atoms: _234  and  _235
REMARK   98  A    between atoms: _235  and  _236
REMARK   99  A    between atoms: _236  and  _237
REMARK  100  A    between atoms: _246  and  _248
REMARK  101  A    between atoms: _248  and  _249
REMARK  102  A    between atoms: _248  and  _251
REMARK  103  A    between atoms: _251  and  _252
REMARK  104  A    between atoms: _255  and  _257
REMARK  105  A    between atoms: _257  and  _258
REMARK  106  A    between atoms: _257  and  _260
REMARK  107  A    between atoms: _260  and  _261
REMARK  108  A    between atoms: _263  and  _265
REMARK  109  A    between atoms: _265  and  _266
REMARK  110  A    between atoms: _265  and  _268
REMARK  111  A    between atoms: _268  and  _269
REMARK  112  A    between atoms: _269  and  _270
REMARK  113  A    between atoms: _275  and  _277
REMARK  114  A    between atoms: _277  and  _278
REMARK  115  A    between atoms: _277  and  _280
REMARK  116  A    between atoms: _280  and  _281
REMARK  117  A    between atoms: _283  and  _285
REMARK  118  A    between atoms: _285  and  _286
REMARK  119  A    between atoms: _288  and  _290
REMARK  120  A    between atoms: _290  and  _291
REMARK  121  A    between atoms: _290  and  _293
REMARK  122  A    between atoms: _293  and  _294
REMARK  123  A    between atoms: _299  and  _301
REMARK  124  A    between atoms: _301  and  _302
REMARK  125  A    between atoms: _304  and  _306
REMARK  126  A    between atoms: _306  and  _307
REMARK  127  A    between atoms: _306  and  _309
REMARK  128  A    between atoms: _309  and  _310
REMARK  129  A    between atoms: _315  and  _316
REMARK  130  A    between atoms: _318  and  _320
REMARK  131  A    between atoms: _320  and  _321
REMARK  132  A    between atoms: _320  and  _323
REMARK  133  A    between atoms: _323  and  _324
REMARK  134  A    between atoms: _330  and  _332
REMARK  135  A    between atoms: _332  and  _333
REMARK  136  A    between atoms: _332  and  _335
REMARK  137  A    between atoms: _335  and  _336
REMARK  138  A    between atoms: _339  and  _341
REMARK  139  A    between atoms: _341  and  _342
REMARK  140  A    between atoms: _341  and  _344
REMARK  141  A    between atoms: _344  and  _345
REMARK  142  A    between atoms: _345  and  _346
REMARK  143  A    between atoms: _349  and  _351
REMARK  144  A    between atoms: _351  and  _352
REMARK  145  A    between atoms: _351  and  _354
REMARK  146  A    between atoms: _354  and  _355
REMARK  147  A    between atoms: _358  and  _360
REMARK  148  A    between atoms: _360  and  _361
REMARK  149  A    between atoms: _360  and  _363
REMARK  150  A    between atoms: _363  and  _364
REMARK  151  A    between atoms: _367  and  _369
REMARK  152  A    between atoms: _369  and  _370
REMARK  153  A    between atoms: _372  and  _374
REMARK  154  A    between atoms: _374  and  _375
REMARK  155  A    between atoms: _374  and  _377
REMARK  156  A    between atoms: _380  and  _382
REMARK  157  A    between atoms: _382  and  _383
REMARK  158  A    between atoms: _382  and  _385
REMARK  159  A    between atoms: _385  and  _386
REMARK  160  A    between atoms: _388  and  _390
REMARK  161  A    between atoms: _390  and  _391
REMARK  162  A    between atoms: _390  and  _393
REMARK  163  A    between atoms: _393  and  _394
REMARK  164  A    between atoms: _394  and  _395
REMARK  165  A    between atoms: _397  and  _399
REMARK  166  A    between atoms: _399  and  _400
REMARK  167  A    between atoms: _399  and  _402
REMARK  168  A    between atoms: _402  and  _403
REMARK  169  A    between atoms: _408  and  _409
REMARK  170  A    between atoms: _411  and  _413
REMARK  171  A    between atoms: _413  and  _414
REMARK  172  A    between atoms: _413  and  _416
REMARK  173  A    between atoms: _416  and  _417
REMARK  174  A    between atoms: _420  and  _422
REMARK  175  A    between atoms: _422  and  _423
REMARK  176  A    between atoms: _422  and  _425
REMARK  177  A    between atoms: _425  and  _426
REMARK  178  A    between atoms: _428  and  _430
REMARK  179  A    between atoms: _430  and  _431
REMARK  180  A    between atoms: _430  and  _433
REMARK  181  A    between atoms: _433  and  _434
REMARK  182  A    between atoms: _437  and  _439
REMARK  183  A    between atoms: _439  and  _440
REMARK  184  A    between atoms: _439  and  _442
REMARK  185  A    between atoms: _442  and  _443
REMARK  186  A    between atoms: _448  and  _449
REMARK  187  A    between atoms: _451  and  _453
REMARK  188  A    between atoms: _453  and  _454
REMARK  189  A    between atoms: _453  and  _456
REMARK  190  A    between atoms: _456  and  _457
REMARK  191  A    between atoms: _459  and  _461
REMARK  192  A    between atoms: _461  and  _462
REMARK  193  A    between atoms: _461  and  _464
REMARK  194  A    between atoms: _464  and  _465
REMARK  195  A    between atoms: _471  and  _473
REMARK  196  A    between atoms: _473  and  _474
REMARK  197  A    between atoms: _473  and  _476
REMARK  198  A    between atoms: _476  and  _477
REMARK  199  A    between atoms: _477  and  _478
REMARK  200  A    between atoms: _478  and  _479
REMARK  201  A    between atoms: _488  and  _490
REMARK  202  A    between atoms: _490  and  _491
REMARK  203  A    between atoms: _490  and  _493
REMARK  204  A    between atoms: _496  and  _498
REMARK  205  A    between atoms: _498  and  _499
REMARK  206  A    between atoms: _501  and  _503
REMARK  207  A    between atoms: _503  and  _504
REMARK  208  A    between atoms: _503  and  _506
REMARK  209  A    between atoms: _506  and  _507
REMARK  210  A    between atoms: _510  and  _512
REMARK  211  A    between atoms: _512  and  _513
REMARK  212  A    between atoms: _512  and  _515
REMARK  213  A    between atoms: _515  and  _516
REMARK  214  A    between atoms: _516  and  _517
REMARK  215  A    between atoms: _519  and  _521
REMARK  216  A    between atoms: _521  and  _522
REMARK  217  A    between atoms: _521  and  _524
REMARK  218  A    between atoms: _524  and  _525
REMARK  219  A    between atoms: _531  and  _533
REMARK  220  A    between atoms: _533  and  _534
REMARK  221  A    between atoms: _533  and  _536
REMARK  222  A    between atoms: _536  and  _537
REMARK  223  A    between atoms: _542  and  _544
REMARK  224  A    between atoms: _544  and  _545
REMARK  225  A    between atoms: _544  and  _547
REMARK  226  A    between atoms: _547  and  _548
REMARK  227  A    between atoms: _558  and  _560
REMARK  228  A    between atoms: _560  and  _561
REMARK  229  A    between atoms: _560  and  _563
REMARK  230  A    between atoms: _566  and  _568
REMARK  231  A    between atoms: _568  and  _569
REMARK  232  A    between atoms: _568  and  _571
REMARK  233  A    between atoms: _571  and  _572
REMARK  234  A    between atoms: _575  and  _577
REMARK  235  A    between atoms: _577  and  _578
REMARK  236  A    between atoms: _577  and  _580
REMARK  237  A    between atoms: _580  and  _581
REMARK  238  A    between atoms: _581  and  _582
REMARK  239  A    between atoms: _584  and  _586
REMARK  240  A    between atoms: _586  and  _587
REMARK  241  A    between atoms: _586  and  _589
REMARK  242  A    between atoms: _589  and  _590
REMARK  243  A    between atoms: _593  and  _595
REMARK  244  A    between atoms: _595  and  _596
REMARK  245  A    between atoms: _595  and  _598
REMARK  246  A    between atoms: _598  and  _599
REMARK  247  A    between atoms: _602  and  _604
REMARK  248  A    between atoms: _604  and  _605
REMARK  249  A    between atoms: _607  and  _609
REMARK  250  A    between atoms: _609  and  _610
REMARK  251  A    between atoms: _609  and  _612
REMARK  252  A    between atoms: _612  and  _613
REMARK  253  A    between atoms: _615  and  _617
REMARK  254  A    between atoms: _617  and  _618
REMARK  255  A    between atoms: _617  and  _620
REMARK  256  A    between atoms: _620  and  _621
REMARK  257  A    between atoms: _631  and  _633
REMARK  258  A    between atoms: _633  and  _634
REMARK  259  A    between atoms: _633  and  _636
REMARK  260  A    between atoms: _636  and  _637
REMARK  261  A    between atoms: _639  and  _641
REMARK  262  A    between atoms: _641  and  _642
REMARK  263  A    between atoms: _641  and  _644
REMARK  264  A    between atoms: _644  and  _645
REMARK  265  A    between atoms: _648  and  _650
REMARK  266  A    between atoms: _650  and  _651
REMARK  267  A    between atoms: _654  and  _656
REMARK  268  A    between atoms: _656  and  _657
REMARK  269  A    between atoms: _656  and  _659
REMARK  270  A    between atoms: _659  and  _660
REMARK  271  A    between atoms: _662  and  _664
REMARK  272  A    between atoms: _664  and  _665
REMARK  273  A    between atoms: _664  and  _667
REMARK  274  A    between atoms: _667  and  _668
REMARK  275  A    between atoms: _668  and  _669
REMARK  276  A    between atoms: _673  and  _674
REMARK  277  A    between atoms: _679  and  _681
REMARK  278  A    between atoms: _681  and  _682
REMARK  279  A    between atoms: _681  and  _684
REMARK  280  A    between atoms: _684  and  _685
REMARK  281  A    between atoms: _687  and  _689
REMARK  282  A    between atoms: _689  and  _690
REMARK  283  A    between atoms: _689  and  _692
REMARK  284  A    between atoms: _692  and  _693
REMARK  285  A    between atoms: _693  and  _694
REMARK  286  A    between atoms: _699  and  _701
REMARK  287  A    between atoms: _701  and  _702
REMARK  288  A    between atoms: _701  and  _704
REMARK  289  A    between atoms: _704  and  _705
REMARK  290  A    between atoms: _705  and  _706
REMARK  291  A    between atoms: _711  and  _713
REMARK  292  A    between atoms: _713  and  _714
REMARK  293  A    between atoms: _713  and  _716
REMARK  294  A    between atoms: _716  and  _717
REMARK  295  A    between atoms: _720  and  _722
REMARK  296  A    between atoms: _722  and  _723
REMARK  297  A    between atoms: _722  and  _725
REMARK  298  A    between atoms: _725  and  _726
REMARK  299  A    between atoms: _729  and  _731
REMARK  300  A    between atoms: _731  and  _732
REMARK  301  A    between atoms: _731  and  _734
REMARK  302  A    between atoms: _734  and  _735
REMARK  303  A    between atoms: _741  and  _743
REMARK  304  A    between atoms: _743  and  _744
REMARK  305  A    between atoms: _743  and  _746
REMARK  306  A    between atoms: _746  and  _747
REMARK  307  A    between atoms: _752  and  _753
REMARK  308  A    between atoms: _755  and  _757
REMARK  309  A    between atoms: _757  and  _758
REMARK  310  A    between atoms: _757  and  _760
REMARK  311  A    between atoms: _760  and  _761
REMARK  312  A    between atoms: _767  and  _769
REMARK  313  A    between atoms: _769  and  _770
REMARK  314  A    between atoms: _769  and  _772
REMARK  315  A    between atoms: _772  and  _773
REMARK  316  A    between atoms: _778  and  _780
REMARK  317  A    between atoms: _780  and  _781
REMARK  318  A    between atoms: _780  and  _783
REMARK  319  A    between atoms: _783  and  _784
REMARK  320  A    between atoms: _784  and  _785
REMARK                            x       y       z     vdW  Elec       q    Type
REMARK                         _______ _______ _______ _____ _____    ______ ____
ROOT
ATOM      1  O   HOH     1      -2.491  51.139  22.420  0.00  0.00    +0.000 OA
ENDROOT
TORSDOF 0
REMARK  Name = ../refined-set-2016/3drf/3drf_pocket.pdb
REMARK  320 active torsions:
REMARK  status: ('A' for Active; 'I' for Inactive)
REMARK    1  A    between atoms: _1  and  _3
REMARK    2  A    between atoms: _3  and  _4
REMARK    3  A    between atoms: _3  and  _6
REMARK    4  A    between atoms: _6  and  _7
REMARK    5  A    between atoms: _12  and  _13
REMARK    6  A    between atoms: _15  and  _17
REMARK    7  A    between atoms: _17  and  _18
REMARK    8  A    between atoms: _17  and  _20
REMARK    9  A    between atoms: _20  and  _21
REMARK   10  A    between atoms: _21  and  _22
REMARK   11  A    between atoms: _27  and  _29
REMARK   12  A    between atoms: _29  and  _30
REMARK   13  A    between atoms: _29  and  _32
REMARK   14  A    between atoms: _32  and  _33
REMARK   15  A    between atoms: _35  and  _37
REMARK   16  A    between atoms: _37  and  _38
REMARK   17  A    between atoms: _37  and  _40
REMARK   18  A    between atoms: _40  and  _41
REMARK   19  A    between atoms: _44  and  _46
REMARK   20  A    between atoms: _46  and  _47
REMARK   21  A    between atoms: _46  and  _49
REMARK   22  A    between atoms: _49  and  _50
REMARK   23  A    between atoms: _52  and  _54
REMARK   24  A    between atoms: _54  and  _55
REMARK   25  A    between atoms: _54  and  _57
REMARK   26  A    between atoms: _57  and  _58
REMARK   27  A    between atoms: _60  and  _62
REMARK   28  A    between atoms: _62  and  _63
REMARK   29  A    between atoms: _65  and  _67
REMARK   30  A    between atoms: _67  and  _68
REMARK   31  A    between atoms: _67  and  _70
REMARK   32  A    between atoms: _70  and  _71
REMARK   33  A    between atoms: _73  and  _75
REMARK   34  A    between atoms: _75  and  _76
REMARK   35  A    between atoms: _75  and  _78
REMARK   36  A    between atoms: _78  and  _79
REMARK   37  A    between atoms: _84  and  _86
REMARK   38  A    between atoms: _86  and  _87
REMARK   39  A    between atoms: _86  and  _89
REMARK   40  A    between atoms: _89  and  _90
REMARK   41  A    between atoms: _93  and  _95
REMARK   42  A    between atoms: _95  and  _96
REMARK   43  A    between atoms: _99  and  _101
REMARK   44  A    between atoms: _101  and  _102
REMARK   45  A    between atoms: _101  and  _104
REMARK   46  A    between atoms: _104  and  _105
REMARK   47  A    between atoms: _108  and  _110
REMARK   48  A    between atoms: _110  and  _111
REMARK   49  A    between atoms: _110  and  _113
REMARK   50  A    between atoms: _113  and  _114
REMARK   51  A    between atoms: _120  and  _122
REMARK   52  A    between atoms: _122  and  _123
REMARK   53  A    between atoms: _126  and  _128
REMARK   54  A    between atoms: _128  and  _129
REMARK   55  A    between atoms: _128  and  _131
REMARK   56  A    between atoms: _131  and  _132
REMARK   57  A    between atoms: _135  and  _137
REMARK   58  A    between atoms: _137  and  _138
REMARK   59  A    between atoms: _140  and  _142
REMARK   60  A    between atoms: _142  and  _143
REMARK   61  A    between atoms: _142  and  _145
REMARK   62  A    between atoms: _145  and  _146
REMARK   63  A    between atoms: _146  and  _147
REMARK   64  A    between atoms: _152  and  _154
REMARK   65  A    between atoms: _154  and  _155
REMARK   66  A    between atoms: _157  and  _159
REMARK   67  A    between atoms: _159  and  _160
REMARK   68  A    between atoms: _159  and  _162
REMARK   69  A    between atoms: _162  and  _163
REMARK   70  A    between atoms: _166  and  _168
REMARK   71  A    between atoms: _168  and  _169
REMARK   72  A    between atoms: _168  and  _171
REMARK   73  A    between atoms: _171  and  _172
REMARK   74  A    between atoms: _178  and  _180
REMARK   75  A    between atoms: _180  and  _181
REMARK   76  A    between atoms: _180  and  _183
REMARK   77  A    between atoms: _183  and  _184
REMARK   78  A    between atoms: _187  and  _189
REMARK   79  A    between atoms: _189  and  _190
REMARK   80  A    between atoms: _189  and  _192
REMARK   81  A    between atoms: _192  and  _193
REMARK   82  A    between atoms: _199  and  _201
REMARK   83  A    between atoms: _201  and  _202
REMARK   84  A    between atoms: _201  and  _204
REMARK   85  A    between atoms: _204  and  _205
REMARK   86  A    between atoms: _211  and  _213
REMARK   87  A    between atoms: _213  and  _214
REMARK   88  A    between atoms: _213  and  _216
REMARK   89  A    between atoms: _216  and  _217
REMARK   90  A    between atoms: _220  and  _222
REMARK   91  A    between atoms: _222  and  _223
REMARK   92  A    between atoms: _222  and  _225
REMARK   93  A    between atoms: _225  and  _226
REMARK   94  A    between atoms: _229  and  _231
REMARK   95  A    between atoms: _231  and  _232
REMARK   96  A    between atoms: _231  and  _234
REMARK   97  A    between atoms: _234  and  _235
REMARK   98  A    between atoms: _235  and  _236
REMARK   99  A    between atoms: _236  and  _237
REMARK  100  A    between atoms: _246  and  _248
REMARK  101  A    between atoms: _248  and  _249
REMARK  102  A    between atoms: _248  and  _251
REMARK  103  A    between atoms: _251  and  _252
REMARK  104  A    between atoms: _255  and  _257
REMARK  105  A    between atoms: _257  and  _258
REMARK  106  A    between atoms: _257  and  _260
REMARK  107  A    between atoms: _260  and  _261
REMARK  108  A    between atoms: _263  and  _265
REMARK  109  A    between atoms: _265  and  _266
REMARK  110  A    between atoms: _265  and  _268
REMARK  111  A    between atoms: _268  and  _269
REMARK  112  A    between atoms: _269  and  _270
REMARK  113  A    between atoms: _275  and  _277
REMARK  114  A    between atoms: _277  and  _278
REMARK  115  A    between atoms: _277  and  _280
REMARK  116  A    between atoms: _280  and  _281
REMARK  117  A    between atoms: _283  and  _285
REMARK  118  A    between atoms: _285  and  _286
REMARK  119  A    between atoms: _288  and  _290
REMARK  120  A    between atoms: _290  and  _291
REMARK  121  A    between atoms: _290  and  _293
REMARK  122  A    between atoms: _293  and  _294
REMARK  123  A    between atoms: _299  and  _301
REMARK  124  A    between atoms: _301  and  _302
REMARK  125  A    between atoms: _304  and  _306
REMARK  126  A    between atoms: _306  and  _307
REMARK  127  A    between atoms: _306  and  _309
REMARK  128  A    between atoms: _309  and  _310
REMARK  129  A    between atoms: _315  and  _316
REMARK  130  A    between atoms: _318  and  _320
REMARK  131  A    between atoms: _320  and  _321
REMARK  132  A    between atoms: _320  and  _323
REMARK  133  A    between atoms: _323  and  _324
REMARK  134  A    between atoms: _330  and  _332
REMARK  135  A    between atoms: _332  and  _333
REMARK  136  A    between atoms: _332  and  _335
REMARK  137  A    between atoms: _335  and  _336
REMARK  138  A    between atoms: _339  and  _341
REMARK  139  A    between atoms: _341  and  _342
REMARK  140  A    between atoms: _341  and  _344
REMARK  141  A    between atoms: _344  and  _345
REMARK  142  A    between atoms: _345  and  _346
REMARK  143  A    between atoms: _349  and  _351
REMARK  144  A    between atoms: _351  and  _352
REMARK  145  A    between atoms: _351  and  _354
REMARK  146  A    between atoms: _354  and  _355
REMARK  147  A    between atoms: _358  and  _360
REMARK  148  A    between atoms: _360  and  _361
REMARK  149  A    between atoms: _360  and  _363
REMARK  150  A    between atoms: _363  and  _364
REMARK  151  A    between atoms: _367  and  _369
REMARK  152  A    between atoms: _369  and  _370
REMARK  153  A    between atoms: _372  and  _374
REMARK  154  A    between atoms: _374  and  _375
REMARK  155  A    between atoms: _374  and  _377
REMARK  156  A    between atoms: _380  and  _382
REMARK  157  A    between atoms: _382  and  _383
REMARK  158  A    between atoms: _382  and  _385
REMARK  159  A    between atoms: _385  and  _386
REMARK  160  A    between atoms: _388  and  _390
REMARK  161  A    between atoms: _390  and  _391
REMARK  162  A    between atoms: _390  and  _393
REMARK  163  A    between atoms: _393  and  _394
REMARK  164  A    between atoms: _394  and  _395
REMARK  165  A    between atoms: _397  and  _399
REMARK  166  A    between atoms: _399  and  _400
REMARK  167  A    between atoms: _399  and  _402
REMARK  168  A    between atoms: _402  and  _403
REMARK  169  A    between atoms: _408  and  _409
REMARK  170  A    between atoms: _411  and  _413
REMARK  171  A    between atoms: _413  and  _414
REMARK  172  A    between atoms: _413  and  _416
REMARK  173  A    between atoms: _416  and  _417
REMARK  174  A    between atoms: _420  and  _422
REMARK  175  A    between atoms: _422  and  _423
REMARK  176  A    between atoms: _422  and  _425
REMARK  177  A    between atoms: _425  and  _426
REMARK  178  A    between atoms: _428  and  _430
REMARK  179  A    between atoms: _430  and  _431
REMARK  180  A    between atoms: _430  and  _433
REMARK  181  A    between atoms: _433  and  _434
REMARK  182  A    between atoms: _437  and  _439
REMARK  183  A    between atoms: _439  and  _440
REMARK  184  A    between atoms: _439  and  _442
REMARK  185  A    between atoms: _442  and  _443
REMARK  186  A    between atoms: _448  and  _449
REMARK  187  A    between atoms: _451  and  _453
REMARK  188  A    between atoms: _453  and  _454
REMARK  189  A    between atoms: _453  and  _456
REMARK  190  A    between atoms: _456  and  _457
REMARK  191  A    between atoms: _459  and  _461
REMARK  192  A    between atoms: _461  and  _462
REMARK  193  A    between atoms: _461  and  _464
REMARK  194  A    between atoms: _464  and  _465
REMARK  195  A    between atoms: _471  and  _473
REMARK  196  A    between atoms: _473  and  _474
REMARK  197  A    between atoms: _473  and  _476
REMARK  198  A    between atoms: _476  and  _477
REMARK  199  A    between atoms: _477  and  _478
REMARK  200  A    between atoms: _478  and  _479
REMARK  201  A    between atoms: _488  and  _490
REMARK  202  A    between atoms: _490  and  _491
REMARK  203  A    between atoms: _490  and  _493
REMARK  204  A    between atoms: _496  and  _498
REMARK  205  A    between atoms: _498  and  _499
REMARK  206  A    between atoms: _501  and  _503
REMARK  207  A    between atoms: _503  and  _504
REMARK  208  A    between atoms: _503  and  _506
REMARK  209  A    between atoms: _506  and  _507
REMARK  210  A    between atoms: _510  and  _512
REMARK  211  A    between atoms: _512  and  _513
REMARK  212  A    between atoms: _512  and  _515
REMARK  213  A    between atoms: _515  and  _516
REMARK  214  A    between atoms: _516  and  _517
REMARK  215  A    between atoms: _519  and  _521
REMARK  216  A    between atoms: _521  and  _522
REMARK  217  A    between atoms: _521  and  _524
REMARK  218  A    between atoms: _524  and  _525
REMARK  219  A    between atoms: _531  and  _533
REMARK  220  A    between atoms: _533  and  _534
REMARK  221  A    between atoms: _533  and  _536
REMARK  222  A    between atoms: _536  and  _537
REMARK  223  A    between atoms: _542  and  _544
REMARK  224  A    between atoms: _544  and  _545
REMARK  225  A    between atoms: _544  and  _547
REMARK  226  A    between atoms: _547  and  _548
REMARK  227  A    between atoms: _558  and  _560
REMARK  228  A    between atoms: _560  and  _561
REMARK  229  A    between atoms: _560  and  _563
REMARK  230  A    between atoms: _566  and  _568
REMARK  231  A    between atoms: _568  and  _569
REMARK  232  A    between atoms: _568  and  _571
REMARK  233  A    between atoms: _571  and  _572
REMARK  234  A    between atoms: _575  and  _577
REMARK  235  A    between atoms: _577  and  _578
REMARK  236  A    between atoms: _577  and  _580
REMARK  237  A    between atoms: _580  and  _581
REMARK  238  A    between atoms: _581  and  _582
REMARK  239  A    between atoms: _584  and  _586
REMARK  240  A    between atoms: _586  and  _587
REMARK  241  A    between atoms: _586  and  _589
REMARK  242  A    between atoms: _589  and  _590
REMARK  243  A    between atoms: _593  and  _595
REMARK  244  A    between atoms: _595  and  _596
REMARK  245  A    between atoms: _595  and  _598
REMARK  246  A    between atoms: _598  and  _599
REMARK  247  A    between atoms: _602  and  _604
REMARK  248  A    between atoms: _604  and  _605
REMARK  249  A    between atoms: _607  and  _609
REMARK  250  A    between atoms: _609  and  _610
REMARK  251  A    between atoms: _609  and  _612
REMARK  252  A    between atoms: _612  and  _613
REMARK  253  A    between atoms: _615  and  _617
REMARK  254  A    between atoms: _617  and  _618
REMARK  255  A    between atoms: _617  and  _620
REMARK  256  A    between atoms: _620  and  _621
REMARK  257  A    between atoms: _631  and  _633
REMARK  258  A    between atoms: _633  and  _634
REMARK  259  A    between atoms: _633  and  _636
REMARK  260  A    between atoms: _636  and  _637
REMARK  261  A    between atoms: _639  and  _641
REMARK  262  A    between atoms: _641  and  _642
REMARK  263  A    between atoms: _641  and  _644
REMARK  264  A    between atoms: _644  and  _645
REMARK  265  A    between atoms: _648  and  _650
REMARK  266  A    between atoms: _650  and  _651
REMARK  267  A    between atoms: _654  and  _656
REMARK  268  A    between atoms: _656  and  _657
REMARK  269  A    between atoms: _656  and  _659
REMARK  270  A    between atoms: _659  and  _660
REMARK  271  A    between atoms: _662  and  _664
REMARK  272  A    between atoms: _664  and  _665
REMARK  273  A    between atoms: _664  and  _667
REMARK  274  A    between atoms: _667  and  _668
REMARK  275  A    between atoms: _668  and  _669
REMARK  276  A    between atoms: _673  and  _674
REMARK  277  A    between atoms: _679  and  _681
REMARK  278  A    between atoms: _681  and  _682
REMARK  279  A    between atoms: _681  and  _684
REMARK  280  A    between atoms: _684  and  _685
REMARK  281  A    between atoms: _687  and  _689
REMARK  282  A    between atoms: _689  and  _690
REMARK  283  A    between atoms: _689  and  _692
REMARK  284  A    between atoms: _692  and  _693
REMARK  285  A    between atoms: _693  and  _694
REMARK  286  A    between atoms: _699  and  _701
REMARK  287  A    between atoms: _701  and  _702
REMARK  288  A    between atoms: _701  and  _704
REMARK  289  A    between atoms: _704  and  _705
REMARK  290  A    between atoms: _705  and  _706
REMARK  291  A    between atoms: _711  and  _713
REMARK  292  A    between atoms: _713  and  _714
REMARK  293  A    between atoms: _713  and  _716
REMARK  294  A    between atoms: _716  and  _717
REMARK  295  A    between atoms: _720  and  _722
REMARK  296  A    between atoms: _722  and  _723
REMARK  297  A    between atoms: _722  and  _725
REMARK  298  A    between atoms: _725  and  _726
REMARK  299  A    between atoms: _729  and  _731
REMARK  300  A    between atoms: _731  and  _732
REMARK  301  A    between atoms: _731  and  _734
REMARK  302  A    between atoms: _734  and  _735
REMARK  303  A    between atoms: _741  and  _743
REMARK  304  A    between atoms: _743  and  _744
REMARK  305  A    between atoms: _743  and  _746
REMARK  306  A    between atoms: _746  and  _747
REMARK  307  A    between atoms: _752  and  _753
REMARK  308  A    between atoms: _755  and  _757
REMARK  309  A    between atoms: _757  and  _758
REMARK  310  A    between atoms: _757  and  _760
REMARK  311  A    between atoms: _760  and  _761
REMARK  312  A    between atoms: _767  and  _769
REMARK  313  A    between atoms: _769  and  _770
REMARK  314  A    between atoms: _769  and  _772
REMARK  315  A    between atoms: _772  and  _773
REMARK  316  A    between atoms: _778  and  _780
REMARK  317  A    between atoms: _780  and  _781
REMARK  318  A    between atoms: _780  and  _783
REMARK  319  A    between atoms: _783  and  _784
REMARK  320  A    between atoms: _784  and  _785
REMARK                            x       y       z     vdW  Elec       q    Type
REMARK                         _______ _______ _______ _____ _____    ______ ____
ROOT
ATOM      1  O   HOH     1      -1.992  54.678  33.868  0.00  0.00    +0.000 OA
ENDROOT
TORSDOF 0
REMARK  Name = ../refined-set-2016/3drf/3drf_pocket.pdb
REMARK  320 active torsions:
REMARK  status: ('A' for Active; 'I' for Inactive)
REMARK    1  A    between atoms: _1  and  _3
REMARK    2  A    between atoms: _3  and  _4
REMARK    3  A    between atoms: _3  and  _6
REMARK    4  A    between atoms: _6  and  _7
REMARK    5  A    between atoms: _12  and  _13
REMARK    6  A    between atoms: _15  and  _17
REMARK    7  A    between atoms: _17  and  _18
REMARK    8  A    between atoms: _17  and  _20
REMARK    9  A    between atoms: _20  and  _21
REMARK   10  A    between atoms: _21  and  _22
REMARK   11  A    between atoms: _27  and  _29
REMARK   12  A    between atoms: _29  and  _30
REMARK   13  A    between atoms: _29  and  _32
REMARK   14  A    between atoms: _32  and  _33
REMARK   15  A    between atoms: _35  and  _37
REMARK   16  A    between atoms: _37  and  _38
REMARK   17  A    between atoms: _37  and  _40
REMARK   18  A    between atoms: _40  and  _41
REMARK   19  A    between atoms: _44  and  _46
REMARK   20  A    between atoms: _46  and  _47
REMARK   21  A    between atoms: _46  and  _49
REMARK   22  A    between atoms: _49  and  _50
REMARK   23  A    between atoms: _52  and  _54
REMARK   24  A    between atoms: _54  and  _55
REMARK   25  A    between atoms: _54  and  _57
REMARK   26  A    between atoms: _57  and  _58
REMARK   27  A    between atoms: _60  and  _62
REMARK   28  A    between atoms: _62  and  _63
REMARK   29  A    between atoms: _65  and  _67
REMARK   30  A    between atoms: _67  and  _68
REMARK   31  A    between atoms: _67  and  _70
REMARK   32  A    between atoms: _70  and  _71
REMARK   33  A    between atoms: _73  and  _75
REMARK   34  A    between atoms: _75  and  _76
REMARK   35  A    between atoms: _75  and  _78
REMARK   36  A    between atoms: _78  and  _79
REMARK   37  A    between atoms: _84  and  _86
REMARK   38  A    between atoms: _86  and  _87
REMARK   39  A    between atoms: _86  and  _89
REMARK   40  A    between atoms: _89  and  _90
REMARK   41  A    between atoms: _93  and  _95
REMARK   42  A    between atoms: _95  and  _96
REMARK   43  A    between atoms: _99  and  _101
REMARK   44  A    between atoms: _101  and  _102
REMARK   45  A    between atoms: _101  and  _104
REMARK   46  A    between atoms: _104  and  _105
REMARK   47  A    between atoms: _108  and  _110
REMARK   48  A    between atoms: _110  and  _111
REMARK   49  A    between atoms: _110  and  _113
REMARK   50  A    between atoms: _113  and  _114
REMARK   51  A    between atoms: _120  and  _122
REMARK   52  A    between atoms: _122  and  _123
REMARK   53  A    between atoms: _126  and  _128
REMARK   54  A    between atoms: _128  and  _129
REMARK   55  A    between atoms: _128  and  _131
REMARK   56  A    between atoms: _131  and  _132
REMARK   57  A    between atoms: _135  and  _137
REMARK   58  A    between atoms: _137  and  _138
REMARK   59  A    between atoms: _140  and  _142
REMARK   60  A    between atoms: _142  and  _143
REMARK   61  A    between atoms: _142  and  _145
REMARK   62  A    between atoms: _145  and  _146
REMARK   63  A    between atoms: _146  and  _147
REMARK   64  A    between atoms: _152  and  _154
REMARK   65  A    between atoms: _154  and  _155
REMARK   66  A    between atoms: _157  and  _159
REMARK   67  A    between atoms: _159  and  _160
REMARK   68  A    between atoms: _159  and  _162
REMARK   69  A    between atoms: _162  and  _163
REMARK   70  A    between atoms: _166  and  _168
REMARK   71  A    between atoms: _168  and  _169
REMARK   72  A    between atoms: _168  and  _171
REMARK   73  A    between atoms: _171  and  _172
REMARK   74  A    between atoms: _178  and  _180
REMARK   75  A    between atoms: _180  and  _181
REMARK   76  A    between atoms: _180  and  _183
REMARK   77  A    between atoms: _183  and  _184
REMARK   78  A    between atoms: _187  and  _189
REMARK   79  A    between atoms: _189  and  _190
REMARK   80  A    between atoms: _189  and  _192
REMARK   81  A    between atoms: _192  and  _193
REMARK   82  A    between atoms: _199  and  _201
REMARK   83  A    between atoms: _201  and  _202
REMARK   84  A    between atoms: _201  and  _204
REMARK   85  A    between atoms: _204  and  _205
REMARK   86  A    between atoms: _211  and  _213
REMARK   87  A    between atoms: _213  and  _214
REMARK   88  A    between atoms: _213  and  _216
REMARK   89  A    between atoms: _216  and  _217
REMARK   90  A    between atoms: _220  and  _222
REMARK   91  A    between atoms: _222  and  _223
REMARK   92  A    between atoms: _222  and  _225
REMARK   93  A    between atoms: _225  and  _226
REMARK   94  A    between atoms: _229  and  _231
REMARK   95  A    between atoms: _231  and  _232
REMARK   96  A    between atoms: _231  and  _234
REMARK   97  A    between atoms: _234  and  _235
REMARK   98  A    between atoms: _235  and  _236
REMARK   99  A    between atoms: _236  and  _237
REMARK  100  A    between atoms: _246  and  _248
REMARK  101  A    between atoms: _248  and  _249
REMARK  102  A    between atoms: _248  and  _251
REMARK  103  A    between atoms: _251  and  _252
REMARK  104  A    between atoms: _255  and  _257
REMARK  105  A    between atoms: _257  and  _258
REMARK  106  A    between atoms: _257  and  _260
REMARK  107  A    between atoms: _260  and  _261
REMARK  108  A    between atoms: _263  and  _265
REMARK  109  A    between atoms: _265  and  _266
REMARK  110  A    between atoms: _265  and  _268
REMARK  111  A    between atoms: _268  and  _269
REMARK  112  A    between atoms: _269  and  _270
REMARK  113  A    between atoms: _275  and  _277
REMARK  114  A    between atoms: _277  and  _278
REMARK  115  A    between atoms: _277  and  _280
REMARK  116  A    between atoms: _280  and  _281
REMARK  117  A    between atoms: _283  and  _285
REMARK  118  A    between atoms: _285  and  _286
REMARK  119  A    between atoms: _288  and  _290
REMARK  120  A    between atoms: _290  and  _291
REMARK  121  A    between atoms: _290  and  _293
REMARK  122  A    between atoms: _293  and  _294
REMARK  123  A    between atoms: _299  and  _301
REMARK  124  A    between atoms: _301  and  _302
REMARK  125  A    between atoms: _304  and  _306
REMARK  126  A    between atoms: _306  and  _307
REMARK  127  A    between atoms: _306  and  _309
REMARK  128  A    between atoms: _309  and  _310
REMARK  129  A    between atoms: _315  and  _316
REMARK  130  A    between atoms: _318  and  _320
REMARK  131  A    between atoms: _320  and  _321
REMARK  132  A    between atoms: _320  and  _323
REMARK  133  A    between atoms: _323  and  _324
REMARK  134  A    between atoms: _330  and  _332
REMARK  135  A    between atoms: _332  and  _333
REMARK  136  A    between atoms: _332  and  _335
REMARK  137  A    between atoms: _335  and  _336
REMARK  138  A    between atoms: _339  and  _341
REMARK  139  A    between atoms: _341  and  _342
REMARK  140  A    between atoms: _341  and  _344
REMARK  141  A    between atoms: _344  and  _345
REMARK  142  A    between atoms: _345  and  _346
REMARK  143  A    between atoms: _349  and  _351
REMARK  144  A    between atoms: _351  and  _352
REMARK  145  A    between atoms: _351  and  _354
REMARK  146  A    between atoms: _354  and  _355
REMARK  147  A    between atoms: _358  and  _360
REMARK  148  A    between atoms: _360  and  _361
REMARK  149  A    between atoms: _360  and  _363
REMARK  150  A    between atoms: _363  and  _364
REMARK  151  A    between atoms: _367  and  _369
REMARK  152  A    between atoms: _369  and  _370
REMARK  153  A    between atoms: _372  and  _374
REMARK  154  A    between atoms: _374  and  _375
REMARK  155  A    between atoms: _374  and  _377
REMARK  156  A    between atoms: _380  and  _382
REMARK  157  A    between atoms: _382  and  _383
REMARK  158  A    between atoms: _382  and  _385
REMARK  159  A    between atoms: _385  and  _386
REMARK  160  A    between atoms: _388  and  _390
REMARK  161  A    between atoms: _390  and  _391
REMARK  162  A    between atoms: _390  and  _393
REMARK  163  A    between atoms: _393  and  _394
REMARK  164  A    between atoms: _394  and  _395
REMARK  165  A    between atoms: _397  and  _399
REMARK  166  A    between atoms: _399  and  _400
REMARK  167  A    between atoms: _399  and  _402
REMARK  168  A    between atoms: _402  and  _403
REMARK  169  A    between atoms: _408  and  _409
REMARK  170  A    between atoms: _411  and  _413
REMARK  171  A    between atoms: _413  and  _414
REMARK  172  A    between atoms: _413  and  _416
REMARK  173  A    between atoms: _416  and  _417
REMARK  174  A    between atoms: _420  and  _422
REMARK  175  A    between atoms: _422  and  _423
REMARK  176  A    between atoms: _422  and  _425
REMARK  177  A    between atoms: _425  and  _426
REMARK  178  A    between atoms: _428  and  _430
REMARK  179  A    between atoms: _430  and  _431
REMARK  180  A    between atoms: _430  and  _433
REMARK  181  A    between atoms: _433  and  _434
REMARK  182  A    between atoms: _437  and  _439
REMARK  183  A    between atoms: _439  and  _440
REMARK  184  A    between atoms: _439  and  _442
REMARK  185  A    between atoms: _442  and  _443
REMARK  186  A    between atoms: _448  and  _449
REMARK  187  A    between atoms: _451  and  _453
REMARK  188  A    between atoms: _453  and  _454
REMARK  189  A    between atoms: _453  and  _456
REMARK  190  A    between atoms: _456  and  _457
REMARK  191  A    between atoms: _459  and  _461
REMARK  192  A    between atoms: _461  and  _462
REMARK  193  A    between atoms: _461  and  _464
REMARK  194  A    between atoms: _464  and  _465
REMARK  195  A    between atoms: _471  and  _473
REMARK  196  A    between atoms: _473  and  _474
REMARK  197  A    between atoms: _473  and  _476
REMARK  198  A    between atoms: _476  and  _477
REMARK  199  A    between atoms: _477  and  _478
REMARK  200  A    between atoms: _478  and  _479
REMARK  201  A    between atoms: _488  and  _490
REMARK  202  A    between atoms: _490  and  _491
REMARK  203  A    between atoms: _490  and  _493
REMARK  204  A    between atoms: _496  and  _498
REMARK  205  A    between atoms: _498  and  _499
REMARK  206  A    between atoms: _501  and  _503
REMARK  207  A    between atoms: _503  and  _504
REMARK  208  A    between atoms: _503  and  _506
REMARK  209  A    between atoms: _506  and  _507
REMARK  210  A    between atoms: _510  and  _512
REMARK  211  A    between atoms: _512  and  _513
REMARK  212  A    between atoms: _512  and  _515
REMARK  213  A    between atoms: _515  and  _516
REMARK  214  A    between atoms: _516  and  _517
REMARK  215  A    between atoms: _519  and  _521
REMARK  216  A    between atoms: _521  and  _522
REMARK  217  A    between atoms: _521  and  _524
REMARK  218  A    between atoms: _524  and  _525
REMARK  219  A    between atoms: _531  and  _533
REMARK  220  A    between atoms: _533  and  _534
REMARK  221  A    between atoms: _533  and  _536
REMARK  222  A    between atoms: _536  and  _537
REMARK  223  A    between atoms: _542  and  _544
REMARK  224  A    between atoms: _544  and  _545
REMARK  225  A    between atoms: _544  and  _547
REMARK  226  A    between atoms: _547  and  _548
REMARK  227  A    between atoms: _558  and  _560
REMARK  228  A    between atoms: _560  and  _561
REMARK  229  A    between atoms: _560  and  _563
REMARK  230  A    between atoms: _566  and  _568
REMARK  231  A    between atoms: _568  and  _569
REMARK  232  A    between atoms: _568  and  _571
REMARK  233  A    between atoms: _571  and  _572
REMARK  234  A    between atoms: _575  and  _577
REMARK  235  A    between atoms: _577  and  _578
REMARK  236  A    between atoms: _577  and  _580
REMARK  237  A    between atoms: _580  and  _581
REMARK  238  A    between atoms: _581  and  _582
REMARK  239  A    between atoms: _584  and  _586
REMARK  240  A    between atoms: _586  and  _587
REMARK  241  A    between atoms: _586  and  _589
REMARK  242  A    between atoms: _589  and  _590
REMARK  243  A    between atoms: _593  and  _595
REMARK  244  A    between atoms: _595  and  _596
REMARK  245  A    between atoms: _595  and  _598
REMARK  246  A    between atoms: _598  and  _599
REMARK  247  A    between atoms: _602  and  _604
REMARK  248  A    between atoms: _604  and  _605
REMARK  249  A    between atoms: _607  and  _609
REMARK  250  A    between atoms: _609  and  _610
REMARK  251  A    between atoms: _609  and  _612
REMARK  252  A    between atoms: _612  and  _613
REMARK  253  A    between atoms: _615  and  _617
REMARK  254  A    between atoms: _617  and  _618
REMARK  255  A    between atoms: _617  and  _620
REMARK  256  A    between atoms: _620  and  _621
REMARK  257  A    between atoms: _631  and  _633
REMARK  258  A    between atoms: _633  and  _634
REMARK  259  A    between atoms: _633  and  _636
REMARK  260  A    between atoms: _636  and  _637
REMARK  261  A    between atoms: _639  and  _641
REMARK  262  A    between atoms: _641  and  _642
REMARK  263  A    between atoms: _641  and  _644
REMARK  264  A    between atoms: _644  and  _645
REMARK  265  A    between atoms: _648  and  _650
REMARK  266  A    between atoms: _650  and  _651
REMARK  267  A    between atoms: _654  and  _656
REMARK  268  A    between atoms: _656  and  _657
REMARK  269  A    between atoms: _656  and  _659
REMARK  270  A    between atoms: _659  and  _660
REMARK  271  A    between atoms: _662  and  _664
REMARK  272  A    between atoms: _664  and  _665
REMARK  273  A    between atoms: _664  and  _667
REMARK  274  A    between atoms: _667  and  _668
REMARK  275  A    between atoms: _668  and  _669
REMARK  276  A    between atoms: _673  and  _674
REMARK  277  A    between atoms: _679  and  _681
REMARK  278  A    between atoms: _681  and  _682
REMARK  279  A    between atoms: _681  and  _684
REMARK  280  A    between atoms: _684  and  _685
REMARK  281  A    between atoms: _687  and  _689
REMARK  282  A    between atoms: _689  and  _690
REMARK  283  A    between atoms: _689  and  _692
REMARK  284  A    between atoms: _692  and  _693
REMARK  285  A    between atoms: _693  and  _694
REMARK  286  A    between atoms: _699  and  _701
REMARK  287  A    between atoms: _701  and  _702
REMARK  288  A    between atoms: _701  and  _704
REMARK  289  A    between atoms: _704  and  _705
REMARK  290  A    between atoms: _705  and  _706
REMARK  291  A    between atoms: _711  and  _713
REMARK  292  A    between atoms: _713  and  _714
REMARK  293  A    between atoms: _713  and  _716
REMARK  294  A    between atoms: _716  and  _717
REMARK  295  A    between atoms: _720  and  _722
REMARK  296  A    between atoms: _722  and  _723
REMARK  297  A    between atoms: _722  and  _725
REMARK  298  A    between atoms: _725  and  _726
REMARK  299  A    between atoms: _729  and  _731
REMARK  300  A    between atoms: _731  and  _732
REMARK  301  A    between atoms: _731  and  _734
REMARK  302  A    between atoms: _734  and  _735
REMARK  303  A    between atoms: _741  and  _743
REMARK  304  A    between atoms: _743  and  _744
REMARK  305  A    between atoms: _743  and  _746
REMARK  306  A    between atoms: _746  and  _747
REMARK  307  A    between atoms: _752  and  _753
REMARK  308  A    between atoms: _755  and  _757
REMARK  309  A    between atoms: _757  and  _758
REMARK  310  A    between atoms: _757  and  _760
REMARK  311  A    between atoms: _760  and  _761
REMARK  312  A    between atoms: _767  and  _769
REMARK  313  A    between atoms: _769  and  _770
REMARK  314  A    between atoms: _769  and  _772
REMARK  315  A    between atoms: _772  and  _773
REMARK  316  A    between atoms: _778  and  _780
REMARK  317  A    between atoms: _780  and  _781
REMARK  318  A    between atoms: _780  and  _783
REMARK  319  A    between atoms: _783  and  _784
REMARK  320  A    between atoms: _784  and  _785
REMARK                            x       y       z     vdW  Elec       q    Type
REMARK                         _______ _______ _______ _____ _____    ______ ____
ROOT
ATOM      1  O   HOH     1      -6.114  53.079  33.631  0.00  0.00    +0.000 OA
ENDROOT
TORSDOF 0
REMARK  Name = ../refined-set-2016/3drf/3drf_pocket.pdb
REMARK  320 active torsions:
REMARK  status: ('A' for Active; 'I' for Inactive)
REMARK    1  A    between atoms: _1  and  _3
REMARK    2  A    between atoms: _3  and  _4
REMARK    3  A    between atoms: _3  and  _6
REMARK    4  A    between atoms: _6  and  _7
REMARK    5  A    between atoms: _12  and  _13
REMARK    6  A    between atoms: _15  and  _17
REMARK    7  A    between atoms: _17  and  _18
REMARK    8  A    between atoms: _17  and  _20
REMARK    9  A    between atoms: _20  and  _21
REMARK   10  A    between atoms: _21  and  _22
REMARK   11  A    between atoms: _27  and  _29
REMARK   12  A    between atoms: _29  and  _30
REMARK   13  A    between atoms: _29  and  _32
REMARK   14  A    between atoms: _32  and  _33
REMARK   15  A    between atoms: _35  and  _37
REMARK   16  A    between atoms: _37  and  _38
REMARK   17  A    between atoms: _37  and  _40
REMARK   18  A    between atoms: _40  and  _41
REMARK   19  A    between atoms: _44  and  _46
REMARK   20  A    between atoms: _46  and  _47
REMARK   21  A    between atoms: _46  and  _49
REMARK   22  A    between atoms: _49  and  _50
REMARK   23  A    between atoms: _52  and  _54
REMARK   24  A    between atoms: _54  and  _55
REMARK   25  A    between atoms: _54  and  _57
REMARK   26  A    between atoms: _57  and  _58
REMARK   27  A    between atoms: _60  and  _62
REMARK   28  A    between atoms: _62  and  _63
REMARK   29  A    between atoms: _65  and  _67
REMARK   30  A    between atoms: _67  and  _68
REMARK   31  A    between atoms: _67  and  _70
REMARK   32  A    between atoms: _70  and  _71
REMARK   33  A    between atoms: _73  and  _75
REMARK   34  A    between atoms: _75  and  _76
REMARK   35  A    between atoms: _75  and  _78
REMARK   36  A    between atoms: _78  and  _79
REMARK   37  A    between atoms: _84  and  _86
REMARK   38  A    between atoms: _86  and  _87
REMARK   39  A    between atoms: _86  and  _89
REMARK   40  A    between atoms: _89  and  _90
REMARK   41  A    between atoms: _93  and  _95
REMARK   42  A    between atoms: _95  and  _96
REMARK   43  A    between atoms: _99  and  _101
REMARK   44  A    between atoms: _101  and  _102
REMARK   45  A    between atoms: _101  and  _104
REMARK   46  A    between atoms: _104  and  _105
REMARK   47  A    between atoms: _108  and  _110
REMARK   48  A    between atoms: _110  and  _111
REMARK   49  A    between atoms: _110  and  _113
REMARK   50  A    between atoms: _113  and  _114
REMARK   51  A    between atoms: _120  and  _122
REMARK   52  A    between atoms: _122  and  _123
REMARK   53  A    between atoms: _126  and  _128
REMARK   54  A    between atoms: _128  and  _129
REMARK   55  A    between atoms: _128  and  _131
REMARK   56  A    between atoms: _131  and  _132
REMARK   57  A    between atoms: _135  and  _137
REMARK   58  A    between atoms: _137  and  _138
REMARK   59  A    between atoms: _140  and  _142
REMARK   60  A    between atoms: _142  and  _143
REMARK   61  A    between atoms: _142  and  _145
REMARK   62  A    between atoms: _145  and  _146
REMARK   63  A    between atoms: _146  and  _147
REMARK   64  A    between atoms: _152  and  _154
REMARK   65  A    between atoms: _154  and  _155
REMARK   66  A    between atoms: _157  and  _159
REMARK   67  A    between atoms: _159  and  _160
REMARK   68  A    between atoms: _159  and  _162
REMARK   69  A    between atoms: _162  and  _163
REMARK   70  A    between atoms: _166  and  _168
REMARK   71  A    between atoms: _168  and  _169
REMARK   72  A    between atoms: _168  and  _171
REMARK   73  A    between atoms: _171  and  _172
REMARK   74  A    between atoms: _178  and  _180
REMARK   75  A    between atoms: _180  and  _181
REMARK   76  A    between atoms: _180  and  _183
REMARK   77  A    between atoms: _183  and  _184
REMARK   78  A    between atoms: _187  and  _189
REMARK   79  A    between atoms: _189  and  _190
REMARK   80  A    between atoms: _189  and  _192
REMARK   81  A    between atoms: _192  and  _193
REMARK   82  A    between atoms: _199  and  _201
REMARK   83  A    between atoms: _201  and  _202
REMARK   84  A    between atoms: _201  and  _204
REMARK   85  A    between atoms: _204  and  _205
REMARK   86  A    between atoms: _211  and  _213
REMARK   87  A    between atoms: _213  and  _214
REMARK   88  A    between atoms: _213  and  _216
REMARK   89  A    between atoms: _216  and  _217
REMARK   90  A    between atoms: _220  and  _222
REMARK   91  A    between atoms: _222  and  _223
REMARK   92  A    between atoms: _222  and  _225
REMARK   93  A    between atoms: _225  and  _226
REMARK   94  A    between atoms: _229  and  _231
REMARK   95  A    between atoms: _231  and  _232
REMARK   96  A    between atoms: _231  and  _234
REMARK   97  A    between atoms: _234  and  _235
REMARK   98  A    between atoms: _235  and  _236
REMARK   99  A    between atoms: _236  and  _237
REMARK  100  A    between atoms: _246  and  _248
REMARK  101  A    between atoms: _248  and  _249
REMARK  102  A    between atoms: _248  and  _251
REMARK  103  A    between atoms: _251  and  _252
REMARK  104  A    between atoms: _255  and  _257
REMARK  105  A    between atoms: _257  and  _258
REMARK  106  A    between atoms: _257  and  _260
REMARK  107  A    between atoms: _260  and  _261
REMARK  108  A    between atoms: _263  and  _265
REMARK  109  A    between atoms: _265  and  _266
REMARK  110  A    between atoms: _265  and  _268
REMARK  111  A    between atoms: _268  and  _269
REMARK  112  A    between atoms: _269  and  _270
REMARK  113  A    between atoms: _275  and  _277
REMARK  114  A    between atoms: _277  and  _278
REMARK  115  A    between atoms: _277  and  _280
REMARK  116  A    between atoms: _280  and  _281
REMARK  117  A    between atoms: _283  and  _285
REMARK  118  A    between atoms: _285  and  _286
REMARK  119  A    between atoms: _288  and  _290
REMARK  120  A    between atoms: _290  and  _291
REMARK  121  A    between atoms: _290  and  _293
REMARK  122  A    between atoms: _293  and  _294
REMARK  123  A    between atoms: _299  and  _301
REMARK  124  A    between atoms: _301  and  _302
REMARK  125  A    between atoms: _304  and  _306
REMARK  126  A    between atoms: _306  and  _307
REMARK  127  A    between atoms: _306  and  _309
REMARK  128  A    between atoms: _309  and  _310
REMARK  129  A    between atoms: _315  and  _316
REMARK  130  A    between atoms: _318  and  _320
REMARK  131  A    between atoms: _320  and  _321
REMARK  132  A    between atoms: _320  and  _323
REMARK  133  A    between atoms: _323  and  _324
REMARK  134  A    between atoms: _330  and  _332
REMARK  135  A    between atoms: _332  and  _333
REMARK  136  A    between atoms: _332  and  _335
REMARK  137  A    between atoms: _335  and  _336
REMARK  138  A    between atoms: _339  and  _341
REMARK  139  A    between atoms: _341  and  _342
REMARK  140  A    between atoms: _341  and  _344
REMARK  141  A    between atoms: _344  and  _345
REMARK  142  A    between atoms: _345  and  _346
REMARK  143  A    between atoms: _349  and  _351
REMARK  144  A    between atoms: _351  and  _352
REMARK  145  A    between atoms: _351  and  _354
REMARK  146  A    between atoms: _354  and  _355
REMARK  147  A    between atoms: _358  and  _360
REMARK  148  A    between atoms: _360  and  _361
REMARK  149  A    between atoms: _360  and  _363
REMARK  150  A    between atoms: _363  and  _364
REMARK  151  A    between atoms: _367  and  _369
REMARK  152  A    between atoms: _369  and  _370
REMARK  153  A    between atoms: _372  and  _374
REMARK  154  A    between atoms: _374  and  _375
REMARK  155  A    between atoms: _374  and  _377
REMARK  156  A    between atoms: _380  and  _382
REMARK  157  A    between atoms: _382  and  _383
REMARK  158  A    between atoms: _382  and  _385
REMARK  159  A    between atoms: _385  and  _386
REMARK  160  A    between atoms: _388  and  _390
REMARK  161  A    between atoms: _390  and  _391
REMARK  162  A    between atoms: _390  and  _393
REMARK  163  A    between atoms: _393  and  _394
REMARK  164  A    between atoms: _394  and  _395
REMARK  165  A    between atoms: _397  and  _399
REMARK  166  A    between atoms: _399  and  _400
REMARK  167  A    between atoms: _399  and  _402
REMARK  168  A    between atoms: _402  and  _403
REMARK  169  A    between atoms: _408  and  _409
REMARK  170  A    between atoms: _411  and  _413
REMARK  171  A    between atoms: _413  and  _414
REMARK  172  A    between atoms: _413  and  _416
REMARK  173  A    between atoms: _416  and  _417
REMARK  174  A    between atoms: _420  and  _422
REMARK  175  A    between atoms: _422  and  _423
REMARK  176  A    between atoms: _422  and  _425
REMARK  177  A    between atoms: _425  and  _426
REMARK  178  A    between atoms: _428  and  _430
REMARK  179  A    between atoms: _430  and  _431
REMARK  180  A    between atoms: _430  and  _433
REMARK  181  A    between atoms: _433  and  _434
REMARK  182  A    between atoms: _437  and  _439
REMARK  183  A    between atoms: _439  and  _440
REMARK  184  A    between atoms: _439  and  _442
REMARK  185  A    between atoms: _442  and  _443
REMARK  186  A    between atoms: _448  and  _449
REMARK  187  A    between atoms: _451  and  _453
REMARK  188  A    between atoms: _453  and  _454
REMARK  189  A    between atoms: _453  and  _456
REMARK  190  A    between atoms: _456  and  _457
REMARK  191  A    between atoms: _459  and  _461
REMARK  192  A    between atoms: _461  and  _462
REMARK  193  A    between atoms: _461  and  _464
REMARK  194  A    between atoms: _464  and  _465
REMARK  195  A    between atoms: _471  and  _473
REMARK  196  A    between atoms: _473  and  _474
REMARK  197  A    between atoms: _473  and  _476
REMARK  198  A    between atoms: _476  and  _477
REMARK  199  A    between atoms: _477  and  _478
REMARK  200  A    between atoms: _478  and  _479
REMARK  201  A    between atoms: _488  and  _490
REMARK  202  A    between atoms: _490  and  _491
REMARK  203  A    between atoms: _490  and  _493
REMARK  204  A    between atoms: _496  and  _498
REMARK  205  A    between atoms: _498  and  _499
REMARK  206  A    between atoms: _501  and  _503
REMARK  207  A    between atoms: _503  and  _504
REMARK  208  A    between atoms: _503  and  _506
REMARK  209  A    between atoms: _506  and  _507
REMARK  210  A    between atoms: _510  and  _512
REMARK  211  A    between atoms: _512  and  _513
REMARK  212  A    between atoms: _512  and  _515
REMARK  213  A    between atoms: _515  and  _516
REMARK  214  A    between atoms: _516  and  _517
REMARK  215  A    between atoms: _519  and  _521
REMARK  216  A    between atoms: _521  and  _522
REMARK  217  A    between atoms: _521  and  _524
REMARK  218  A    between atoms: _524  and  _525
REMARK  219  A    between atoms: _531  and  _533
REMARK  220  A    between atoms: _533  and  _534
REMARK  221  A    between atoms: _533  and  _536
REMARK  222  A    between atoms: _536  and  _537
REMARK  223  A    between atoms: _542  and  _544
REMARK  224  A    between atoms: _544  and  _545
REMARK  225  A    between atoms: _544  and  _547
REMARK  226  A    between atoms: _547  and  _548
REMARK  227  A    between atoms: _558  and  _560
REMARK  228  A    between atoms: _560  and  _561
REMARK  229  A    between atoms: _560  and  _563
REMARK  230  A    between atoms: _566  and  _568
REMARK  231  A    between atoms: _568  and  _569
REMARK  232  A    between atoms: _568  and  _571
REMARK  233  A    between atoms: _571  and  _572
REMARK  234  A    between atoms: _575  and  _577
REMARK  235  A    between atoms: _577  and  _578
REMARK  236  A    between atoms: _577  and  _580
REMARK  237  A    between atoms: _580  and  _581
REMARK  238  A    between atoms: _581  and  _582
REMARK  239  A    between atoms: _584  and  _586
REMARK  240  A    between atoms: _586  and  _587
REMARK  241  A    between atoms: _586  and  _589
REMARK  242  A    between atoms: _589  and  _590
REMARK  243  A    between atoms: _593  and  _595
REMARK  244  A    between atoms: _595  and  _596
REMARK  245  A    between atoms: _595  and  _598
REMARK  246  A    between atoms: _598  and  _599
REMARK  247  A    between atoms: _602  and  _604
REMARK  248  A    between atoms: _604  and  _605
REMARK  249  A    between atoms: _607  and  _609
REMARK  250  A    between atoms: _609  and  _610
REMARK  251  A    between atoms: _609  and  _612
REMARK  252  A    between atoms: _612  and  _613
REMARK  253  A    between atoms: _615  and  _617
REMARK  254  A    between atoms: _617  and  _618
REMARK  255  A    between atoms: _617  and  _620
REMARK  256  A    between atoms: _620  and  _621
REMARK  257  A    between atoms: _631  and  _633
REMARK  258  A    between atoms: _633  and  _634
REMARK  259  A    between atoms: _633  and  _636
REMARK  260  A    between atoms: _636  and  _637
REMARK  261  A    between atoms: _639  and  _641
REMARK  262  A    between atoms: _641  and  _642
REMARK  263  A    between atoms: _641  and  _644
REMARK  264  A    between atoms: _644  and  _645
REMARK  265  A    between atoms: _648  and  _650
REMARK  266  A    between atoms: _650  and  _651
REMARK  267  A    between atoms: _654  and  _656
REMARK  268  A    between atoms: _656  and  _657
REMARK  269  A    between atoms: _656  and  _659
REMARK  270  A    between atoms: _659  and  _660
REMARK  271  A    between atoms: _662  and  _664
REMARK  272  A    between atoms: _664  and  _665
REMARK  273  A    between atoms: _664  and  _667
REMARK  274  A    between atoms: _667  and  _668
REMARK  275  A    between atoms: _668  and  _669
REMARK  276  A    between atoms: _673  and  _674
REMARK  277  A    between atoms: _679  and  _681
REMARK  278  A    between atoms: _681  and  _682
REMARK  279  A    between atoms: _681  and  _684
REMARK  280  A    between atoms: _684  and  _685
REMARK  281  A    between atoms: _687  and  _689
REMARK  282  A    between atoms: _689  and  _690
REMARK  283  A    between atoms: _689  and  _692
REMARK  284  A    between atoms: _692  and  _693
REMARK  285  A    between atoms: _693  and  _694
REMARK  286  A    between atoms: _699  and  _701
REMARK  287  A    between atoms: _701  and  _702
REMARK  288  A    between atoms: _701  and  _704
REMARK  289  A    between atoms: _704  and  _705
REMARK  290  A    between atoms: _705  and  _706
REMARK  291  A    between atoms: _711  and  _713
REMARK  292  A    between atoms: _713  and  _714
REMARK  293  A    between atoms: _713  and  _716
REMARK  294  A    between atoms: _716  and  _717
REMARK  295  A    between atoms: _720  and  _722
REMARK  296  A    between atoms: _722  and  _723
REMARK  297  A    between atoms: _722  and  _725
REMARK  298  A    between atoms: _725  and  _726
REMARK  299  A    between atoms: _729  and  _731
REMARK  300  A    between atoms: _731  and  _732
REMARK  301  A    between atoms: _731  and  _734
REMARK  302  A    between atoms: _734  and  _735
REMARK  303  A    between atoms: _741  and  _743
REMARK  304  A    between atoms: _743  and  _744
REMARK  305  A    between atoms: _743  and  _746
REMARK  306  A    between atoms: _746  and  _747
REMARK  307  A    between atoms: _752  and  _753
REMARK  308  A    between atoms: _755  and  _757
REMARK  309  A    between atoms: _757  and  _758
REMARK  310  A    between atoms: _757  and  _760
REMARK  311  A    between atoms: _760  and  _761
REMARK  312  A    between atoms: _767  and  _769
REMARK  313  A    between atoms: _769  and  _770
REMARK  314  A    between atoms: _769  and  _772
REMARK  315  A    between atoms: _772  and  _773
REMARK  316  A    between atoms: _778  and  _780
REMARK  317  A    between atoms: _780  and  _781
REMARK  318  A    between atoms: _780  and  _783
REMARK  319  A    between atoms: _783  and  _784
REMARK  320  A    between atoms: _784  and  _785
REMARK                            x       y       z     vdW  Elec       q    Type
REMARK                         _______ _______ _______ _____ _____    ______ ____
ROOT
ATOM      1  O   HOH     1      15.029  42.787  30.212  0.00  0.00    +0.000 OA
ENDROOT
TORSDOF 0
REMARK  Name = ../refined-set-2016/3drf/3drf_pocket.pdb
REMARK  320 active torsions:
REMARK  status: ('A' for Active; 'I' for Inactive)
REMARK    1  A    between atoms: _1  and  _3
REMARK    2  A    between atoms: _3  and  _4
REMARK    3  A    between atoms: _3  and  _6
REMARK    4  A    between atoms: _6  and  _7
REMARK    5  A    between atoms: _12  and  _13
REMARK    6  A    between atoms: _15  and  _17
REMARK    7  A    between atoms: _17  and  _18
REMARK    8  A    between atoms: _17  and  _20
REMARK    9  A    between atoms: _20  and  _21
REMARK   10  A    between atoms: _21  and  _22
REMARK   11  A    between atoms: _27  and  _29
REMARK   12  A    between atoms: _29  and  _30
REMARK   13  A    between atoms: _29  and  _32
REMARK   14  A    between atoms: _32  and  _33
REMARK   15  A    between atoms: _35  and  _37
REMARK   16  A    between atoms: _37  and  _38
REMARK   17  A    between atoms: _37  and  _40
REMARK   18  A    between atoms: _40  and  _41
REMARK   19  A    between atoms: _44  and  _46
REMARK   20  A    between atoms: _46  and  _47
REMARK   21  A    between atoms: _46  and  _49
REMARK   22  A    between atoms: _49  and  _50
REMARK   23  A    between atoms: _52  and  _54
REMARK   24  A    between atoms: _54  and  _55
REMARK   25  A    between atoms: _54  and  _57
REMARK   26  A    between atoms: _57  and  _58
REMARK   27  A    between atoms: _60  and  _62
REMARK   28  A    between atoms: _62  and  _63
REMARK   29  A    between atoms: _65  and  _67
REMARK   30  A    between atoms: _67  and  _68
REMARK   31  A    between atoms: _67  and  _70
REMARK   32  A    between atoms: _70  and  _71
REMARK   33  A    between atoms: _73  and  _75
REMARK   34  A    between atoms: _75  and  _76
REMARK   35  A    between atoms: _75  and  _78
REMARK   36  A    between atoms: _78  and  _79
REMARK   37  A    between atoms: _84  and  _86
REMARK   38  A    between atoms: _86  and  _87
REMARK   39  A    between atoms: _86  and  _89
REMARK   40  A    between atoms: _89  and  _90
REMARK   41  A    between atoms: _93  and  _95
REMARK   42  A    between atoms: _95  and  _96
REMARK   43  A    between atoms: _99  and  _101
REMARK   44  A    between atoms: _101  and  _102
REMARK   45  A    between atoms: _101  and  _104
REMARK   46  A    between atoms: _104  and  _105
REMARK   47  A    between atoms: _108  and  _110
REMARK   48  A    between atoms: _110  and  _111
REMARK   49  A    between atoms: _110  and  _113
REMARK   50  A    between atoms: _113  and  _114
REMARK   51  A    between atoms: _120  and  _122
REMARK   52  A    between atoms: _122  and  _123
REMARK   53  A    between atoms: _126  and  _128
REMARK   54  A    between atoms: _128  and  _129
REMARK   55  A    between atoms: _128  and  _131
REMARK   56  A    between atoms: _131  and  _132
REMARK   57  A    between atoms: _135  and  _137
REMARK   58  A    between atoms: _137  and  _138
REMARK   59  A    between atoms: _140  and  _142
REMARK   60  A    between atoms: _142  and  _143
REMARK   61  A    between atoms: _142  and  _145
REMARK   62  A    between atoms: _145  and  _146
REMARK   63  A    between atoms: _146  and  _147
REMARK   64  A    between atoms: _152  and  _154
REMARK   65  A    between atoms: _154  and  _155
REMARK   66  A    between atoms: _157  and  _159
REMARK   67  A    between atoms: _159  and  _160
REMARK   68  A    between atoms: _159  and  _162
REMARK   69  A    between atoms: _162  and  _163
REMARK   70  A    between atoms: _166  and  _168
REMARK   71  A    between atoms: _168  and  _169
REMARK   72  A    between atoms: _168  and  _171
REMARK   73  A    between atoms: _171  and  _172
REMARK   74  A    between atoms: _178  and  _180
REMARK   75  A    between atoms: _180  and  _181
REMARK   76  A    between atoms: _180  and  _183
REMARK   77  A    between atoms: _183  and  _184
REMARK   78  A    between atoms: _187  and  _189
REMARK   79  A    between atoms: _189  and  _190
REMARK   80  A    between atoms: _189  and  _192
REMARK   81  A    between atoms: _192  and  _193
REMARK   82  A    between atoms: _199  and  _201
REMARK   83  A    between atoms: _201  and  _202
REMARK   84  A    between atoms: _201  and  _204
REMARK   85  A    between atoms: _204  and  _205
REMARK   86  A    between atoms: _211  and  _213
REMARK   87  A    between atoms: _213  and  _214
REMARK   88  A    between atoms: _213  and  _216
REMARK   89  A    between atoms: _216  and  _217
REMARK   90  A    between atoms: _220  and  _222
REMARK   91  A    between atoms: _222  and  _223
REMARK   92  A    between atoms: _222  and  _225
REMARK   93  A    between atoms: _225  and  _226
REMARK   94  A    between atoms: _229  and  _231
REMARK   95  A    between atoms: _231  and  _232
REMARK   96  A    between atoms: _231  and  _234
REMARK   97  A    between atoms: _234  and  _235
REMARK   98  A    between atoms: _235  and  _236
REMARK   99  A    between atoms: _236  and  _237
REMARK  100  A    between atoms: _246  and  _248
REMARK  101  A    between atoms: _248  and  _249
REMARK  102  A    between atoms: _248  and  _251
REMARK  103  A    between atoms: _251  and  _252
REMARK  104  A    between atoms: _255  and  _257
REMARK  105  A    between atoms: _257  and  _258
REMARK  106  A    between atoms: _257  and  _260
REMARK  107  A    between atoms: _260  and  _261
REMARK  108  A    between atoms: _263  and  _265
REMARK  109  A    between atoms: _265  and  _266
REMARK  110  A    between atoms: _265  and  _268
REMARK  111  A    between atoms: _268  and  _269
REMARK  112  A    between atoms: _269  and  _270
REMARK  113  A    between atoms: _275  and  _277
REMARK  114  A    between atoms: _277  and  _278
REMARK  115  A    between atoms: _277  and  _280
REMARK  116  A    between atoms: _280  and  _281
REMARK  117  A    between atoms: _283  and  _285
REMARK  118  A    between atoms: _285  and  _286
REMARK  119  A    between atoms: _288  and  _290
REMARK  120  A    between atoms: _290  and  _291
REMARK  121  A    between atoms: _290  and  _293
REMARK  122  A    between atoms: _293  and  _294
REMARK  123  A    between atoms: _299  and  _301
REMARK  124  A    between atoms: _301  and  _302
REMARK  125  A    between atoms: _304  and  _306
REMARK  126  A    between atoms: _306  and  _307
REMARK  127  A    between atoms: _306  and  _309
REMARK  128  A    between atoms: _309  and  _310
REMARK  129  A    between atoms: _315  and  _316
REMARK  130  A    between atoms: _318  and  _320
REMARK  131  A    between atoms: _320  and  _321
REMARK  132  A    between atoms: _320  and  _323
REMARK  133  A    between atoms: _323  and  _324
REMARK  134  A    between atoms: _330  and  _332
REMARK  135  A    between atoms: _332  and  _333
REMARK  136  A    between atoms: _332  and  _335
REMARK  137  A    between atoms: _335  and  _336
REMARK  138  A    between atoms: _339  and  _341
REMARK  139  A    between atoms: _341  and  _342
REMARK  140  A    between atoms: _341  and  _344
REMARK  141  A    between atoms: _344  and  _345
REMARK  142  A    between atoms: _345  and  _346
REMARK  143  A    between atoms: _349  and  _351
REMARK  144  A    between atoms: _351  and  _352
REMARK  145  A    between atoms: _351  and  _354
REMARK  146  A    between atoms: _354  and  _355
REMARK  147  A    between atoms: _358  and  _360
REMARK  148  A    between atoms: _360  and  _361
REMARK  149  A    between atoms: _360  and  _363
REMARK  150  A    between atoms: _363  and  _364
REMARK  151  A    between atoms: _367  and  _369
REMARK  152  A    between atoms: _369  and  _370
REMARK  153  A    between atoms: _372  and  _374
REMARK  154  A    between atoms: _374  and  _375
REMARK  155  A    between atoms: _374  and  _377
REMARK  156  A    between atoms: _380  and  _382
REMARK  157  A    between atoms: _382  and  _383
REMARK  158  A    between atoms: _382  and  _385
REMARK  159  A    between atoms: _385  and  _386
REMARK  160  A    between atoms: _388  and  _390
REMARK  161  A    between atoms: _390  and  _391
REMARK  162  A    between atoms: _390  and  _393
REMARK  163  A    between atoms: _393  and  _394
REMARK  164  A    between atoms: _394  and  _395
REMARK  165  A    between atoms: _397  and  _399
REMARK  166  A    between atoms: _399  and  _400
REMARK  167  A    between atoms: _399  and  _402
REMARK  168  A    between atoms: _402  and  _403
REMARK  169  A    between atoms: _408  and  _409
REMARK  170  A    between atoms: _411  and  _413
REMARK  171  A    between atoms: _413  and  _414
REMARK  172  A    between atoms: _413  and  _416
REMARK  173  A    between atoms: _416  and  _417
REMARK  174  A    between atoms: _420  and  _422
REMARK  175  A    between atoms: _422  and  _423
REMARK  176  A    between atoms: _422  and  _425
REMARK  177  A    between atoms: _425  and  _426
REMARK  178  A    between atoms: _428  and  _430
REMARK  179  A    between atoms: _430  and  _431
REMARK  180  A    between atoms: _430  and  _433
REMARK  181  A    between atoms: _433  and  _434
REMARK  182  A    between atoms: _437  and  _439
REMARK  183  A    between atoms: _439  and  _440
REMARK  184  A    between atoms: _439  and  _442
REMARK  185  A    between atoms: _442  and  _443
REMARK  186  A    between atoms: _448  and  _449
REMARK  187  A    between atoms: _451  and  _453
REMARK  188  A    between atoms: _453  and  _454
REMARK  189  A    between atoms: _453  and  _456
REMARK  190  A    between atoms: _456  and  _457
REMARK  191  A    between atoms: _459  and  _461
REMARK  192  A    between atoms: _461  and  _462
REMARK  193  A    between atoms: _461  and  _464
REMARK  194  A    between atoms: _464  and  _465
REMARK  195  A    between atoms: _471  and  _473
REMARK  196  A    between atoms: _473  and  _474
REMARK  197  A    between atoms: _473  and  _476
REMARK  198  A    between atoms: _476  and  _477
REMARK  199  A    between atoms: _477  and  _478
REMARK  200  A    between atoms: _478  and  _479
REMARK  201  A    between atoms: _488  and  _490
REMARK  202  A    between atoms: _490  and  _491
REMARK  203  A    between atoms: _490  and  _493
REMARK  204  A    between atoms: _496  and  _498
REMARK  205  A    between atoms: _498  and  _499
REMARK  206  A    between atoms: _501  and  _503
REMARK  207  A    between atoms: _503  and  _504
REMARK  208  A    between atoms: _503  and  _506
REMARK  209  A    between atoms: _506  and  _507
REMARK  210  A    between atoms: _510  and  _512
REMARK  211  A    between atoms: _512  and  _513
REMARK  212  A    between atoms: _512  and  _515
REMARK  213  A    between atoms: _515  and  _516
REMARK  214  A    between atoms: _516  and  _517
REMARK  215  A    between atoms: _519  and  _521
REMARK  216  A    between atoms: _521  and  _522
REMARK  217  A    between atoms: _521  and  _524
REMARK  218  A    between atoms: _524  and  _525
REMARK  219  A    between atoms: _531  and  _533
REMARK  220  A    between atoms: _533  and  _534
REMARK  221  A    between atoms: _533  and  _536
REMARK  222  A    between atoms: _536  and  _537
REMARK  223  A    between atoms: _542  and  _544
REMARK  224  A    between atoms: _544  and  _545
REMARK  225  A    between atoms: _544  and  _547
REMARK  226  A    between atoms: _547  and  _548
REMARK  227  A    between atoms: _558  and  _560
REMARK  228  A    between atoms: _560  and  _561
REMARK  229  A    between atoms: _560  and  _563
REMARK  230  A    between atoms: _566  and  _568
REMARK  231  A    between atoms: _568  and  _569
REMARK  232  A    between atoms: _568  and  _571
REMARK  233  A    between atoms: _571  and  _572
REMARK  234  A    between atoms: _575  and  _577
REMARK  235  A    between atoms: _577  and  _578
REMARK  236  A    between atoms: _577  and  _580
REMARK  237  A    between atoms: _580  and  _581
REMARK  238  A    between atoms: _581  and  _582
REMARK  239  A    between atoms: _584  and  _586
REMARK  240  A    between atoms: _586  and  _587
REMARK  241  A    between atoms: _586  and  _589
REMARK  242  A    between atoms: _589  and  _590
REMARK  243  A    between atoms: _593  and  _595
REMARK  244  A    between atoms: _595  and  _596
REMARK  245  A    between atoms: _595  and  _598
REMARK  246  A    between atoms: _598  and  _599
REMARK  247  A    between atoms: _602  and  _604
REMARK  248  A    between atoms: _604  and  _605
REMARK  249  A    between atoms: _607  and  _609
REMARK  250  A    between atoms: _609  and  _610
REMARK  251  A    between atoms: _609  and  _612
REMARK  252  A    between atoms: _612  and  _613
REMARK  253  A    between atoms: _615  and  _617
REMARK  254  A    between atoms: _617  and  _618
REMARK  255  A    between atoms: _617  and  _620
REMARK  256  A    between atoms: _620  and  _621
REMARK  257  A    between atoms: _631  and  _633
REMARK  258  A    between atoms: _633  and  _634
REMARK  259  A    between atoms: _633  and  _636
REMARK  260  A    between atoms: _636  and  _637
REMARK  261  A    between atoms: _639  and  _641
REMARK  262  A    between atoms: _641  and  _642
REMARK  263  A    between atoms: _641  and  _644
REMARK  264  A    between atoms: _644  and  _645
REMARK  265  A    between atoms: _648  and  _650
REMARK  266  A    between atoms: _650  and  _651
REMARK  267  A    between atoms: _654  and  _656
REMARK  268  A    between atoms: _656  and  _657
REMARK  269  A    between atoms: _656  and  _659
REMARK  270  A    between atoms: _659  and  _660
REMARK  271  A    between atoms: _662  and  _664
REMARK  272  A    between atoms: _664  and  _665
REMARK  273  A    between atoms: _664  and  _667
REMARK  274  A    between atoms: _667  and  _668
REMARK  275  A    between atoms: _668  and  _669
REMARK  276  A    between atoms: _673  and  _674
REMARK  277  A    between atoms: _679  and  _681
REMARK  278  A    between atoms: _681  and  _682
REMARK  279  A    between atoms: _681  and  _684
REMARK  280  A    between atoms: _684  and  _685
REMARK  281  A    between atoms: _687  and  _689
REMARK  282  A    between atoms: _689  and  _690
REMARK  283  A    between atoms: _689  and  _692
REMARK  284  A    between atoms: _692  and  _693
REMARK  285  A    between atoms: _693  and  _694
REMARK  286  A    between atoms: _699  and  _701
REMARK  287  A    between atoms: _701  and  _702
REMARK  288  A    between atoms: _701  and  _704
REMARK  289  A    between atoms: _704  and  _705
REMARK  290  A    between atoms: _705  and  _706
REMARK  291  A    between atoms: _711  and  _713
REMARK  292  A    between atoms: _713  and  _714
REMARK  293  A    between atoms: _713  and  _716
REMARK  294  A    between atoms: _716  and  _717
REMARK  295  A    between atoms: _720  and  _722
REMARK  296  A    between atoms: _722  and  _723
REMARK  297  A    between atoms: _722  and  _725
REMARK  298  A    between atoms: _725  and  _726
REMARK  299  A    between atoms: _729  and  _731
REMARK  300  A    between atoms: _731  and  _732
REMARK  301  A    between atoms: _731  and  _734
REMARK  302  A    between atoms: _734  and  _735
REMARK  303  A    between atoms: _741  and  _743
REMARK  304  A    between atoms: _743  and  _744
REMARK  305  A    between atoms: _743  and  _746
REMARK  306  A    between atoms: _746  and  _747
REMARK  307  A    between atoms: _752  and  _753
REMARK  308  A    between atoms: _755  and  _757
REMARK  309  A    between atoms: _757  and  _758
REMARK  310  A    between atoms: _757  and  _760
REMARK  311  A    between atoms: _760  and  _761
REMARK  312  A    between atoms: _767  and  _769
REMARK  313  A    between atoms: _769  and  _770
REMARK  314  A    between atoms: _769  and  _772
REMARK  315  A    between atoms: _772  and  _773
REMARK  316  A    between atoms: _778  and  _780
REMARK  317  A    between atoms: _780  and  _781
REMARK  318  A    between atoms: _780  and  _783
REMARK  319  A    between atoms: _783  and  _784
REMARK  320  A    between atoms: _784  and  _785
REMARK                            x       y       z     vdW  Elec       q    Type
REMARK                         _______ _______ _______ _____ _____    ______ ____
ROOT
ATOM      1  O   HOH     1      11.370  60.924  24.798  0.00  0.00    +0.000 OA
ENDROOT
TORSDOF 0
REMARK  Name = ../refined-set-2016/3drf/3drf_pocket.pdb
REMARK  320 active torsions:
REMARK  status: ('A' for Active; 'I' for Inactive)
REMARK    1  A    between atoms: _1  and  _3
REMARK    2  A    between atoms: _3  and  _4
REMARK    3  A    between atoms: _3  and  _6
REMARK    4  A    between atoms: _6  and  _7
REMARK    5  A    between atoms: _12  and  _13
REMARK    6  A    between atoms: _15  and  _17
REMARK    7  A    between atoms: _17  and  _18
REMARK    8  A    between atoms: _17  and  _20
REMARK    9  A    between atoms: _20  and  _21
REMARK   10  A    between atoms: _21  and  _22
REMARK   11  A    between atoms: _27  and  _29
REMARK   12  A    between atoms: _29  and  _30
REMARK   13  A    between atoms: _29  and  _32
REMARK   14  A    between atoms: _32  and  _33
REMARK   15  A    between atoms: _35  and  _37
REMARK   16  A    between atoms: _37  and  _38
REMARK   17  A    between atoms: _37  and  _40
REMARK   18  A    between atoms: _40  and  _41
REMARK   19  A    between atoms: _44  and  _46
REMARK   20  A    between atoms: _46  and  _47
REMARK   21  A    between atoms: _46  and  _49
REMARK   22  A    between atoms: _49  and  _50
REMARK   23  A    between atoms: _52  and  _54
REMARK   24  A    between atoms: _54  and  _55
REMARK   25  A    between atoms: _54  and  _57
REMARK   26  A    between atoms: _57  and  _58
REMARK   27  A    between atoms: _60  and  _62
REMARK   28  A    between atoms: _62  and  _63
REMARK   29  A    between atoms: _65  and  _67
REMARK   30  A    between atoms: _67  and  _68
REMARK   31  A    between atoms: _67  and  _70
REMARK   32  A    between atoms: _70  and  _71
REMARK   33  A    between atoms: _73  and  _75
REMARK   34  A    between atoms: _75  and  _76
REMARK   35  A    between atoms: _75  and  _78
REMARK   36  A    between atoms: _78  and  _79
REMARK   37  A    between atoms: _84  and  _86
REMARK   38  A    between atoms: _86  and  _87
REMARK   39  A    between atoms: _86  and  _89
REMARK   40  A    between atoms: _89  and  _90
REMARK   41  A    between atoms: _93  and  _95
REMARK   42  A    between atoms: _95  and  _96
REMARK   43  A    between atoms: _99  and  _101
REMARK   44  A    between atoms: _101  and  _102
REMARK   45  A    between atoms: _101  and  _104
REMARK   46  A    between atoms: _104  and  _105
REMARK   47  A    between atoms: _108  and  _110
REMARK   48  A    between atoms: _110  and  _111
REMARK   49  A    between atoms: _110  and  _113
REMARK   50  A    between atoms: _113  and  _114
REMARK   51  A    between atoms: _120  and  _122
REMARK   52  A    between atoms: _122  and  _123
REMARK   53  A    between atoms: _126  and  _128
REMARK   54  A    between atoms: _128  and  _129
REMARK   55  A    between atoms: _128  and  _131
REMARK   56  A    between atoms: _131  and  _132
REMARK   57  A    between atoms: _135  and  _137
REMARK   58  A    between atoms: _137  and  _138
REMARK   59  A    between atoms: _140  and  _142
REMARK   60  A    between atoms: _142  and  _143
REMARK   61  A    between atoms: _142  and  _145
REMARK   62  A    between atoms: _145  and  _146
REMARK   63  A    between atoms: _146  and  _147
REMARK   64  A    between atoms: _152  and  _154
REMARK   65  A    between atoms: _154  and  _155
REMARK   66  A    between atoms: _157  and  _159
REMARK   67  A    between atoms: _159  and  _160
REMARK   68  A    between atoms: _159  and  _162
REMARK   69  A    between atoms: _162  and  _163
REMARK   70  A    between atoms: _166  and  _168
REMARK   71  A    between atoms: _168  and  _169
REMARK   72  A    between atoms: _168  and  _171
REMARK   73  A    between atoms: _171  and  _172
REMARK   74  A    between atoms: _178  and  _180
REMARK   75  A    between atoms: _180  and  _181
REMARK   76  A    between atoms: _180  and  _183
REMARK   77  A    between atoms: _183  and  _184
REMARK   78  A    between atoms: _187  and  _189
REMARK   79  A    between atoms: _189  and  _190
REMARK   80  A    between atoms: _189  and  _192
REMARK   81  A    between atoms: _192  and  _193
REMARK   82  A    between atoms: _199  and  _201
REMARK   83  A    between atoms: _201  and  _202
REMARK   84  A    between atoms: _201  and  _204
REMARK   85  A    between atoms: _204  and  _205
REMARK   86  A    between atoms: _211  and  _213
REMARK   87  A    between atoms: _213  and  _214
REMARK   88  A    between atoms: _213  and  _216
REMARK   89  A    between atoms: _216  and  _217
REMARK   90  A    between atoms: _220  and  _222
REMARK   91  A    between atoms: _222  and  _223
REMARK   92  A    between atoms: _222  and  _225
REMARK   93  A    between atoms: _225  and  _226
REMARK   94  A    between atoms: _229  and  _231
REMARK   95  A    between atoms: _231  and  _232
REMARK   96  A    between atoms: _231  and  _234
REMARK   97  A    between atoms: _234  and  _235
REMARK   98  A    between atoms: _235  and  _236
REMARK   99  A    between atoms: _236  and  _237
REMARK  100  A    between atoms: _246  and  _248
REMARK  101  A    between atoms: _248  and  _249
REMARK  102  A    between atoms: _248  and  _251
REMARK  103  A    between atoms: _251  and  _252
REMARK  104  A    between atoms: _255  and  _257
REMARK  105  A    between atoms: _257  and  _258
REMARK  106  A    between atoms: _257  and  _260
REMARK  107  A    between atoms: _260  and  _261
REMARK  108  A    between atoms: _263  and  _265
REMARK  109  A    between atoms: _265  and  _266
REMARK  110  A    between atoms: _265  and  _268
REMARK  111  A    between atoms: _268  and  _269
REMARK  112  A    between atoms: _269  and  _270
REMARK  113  A    between atoms: _275  and  _277
REMARK  114  A    between atoms: _277  and  _278
REMARK  115  A    between atoms: _277  and  _280
REMARK  116  A    between atoms: _280  and  _281
REMARK  117  A    between atoms: _283  and  _285
REMARK  118  A    between atoms: _285  and  _286
REMARK  119  A    between atoms: _288  and  _290
REMARK  120  A    between atoms: _290  and  _291
REMARK  121  A    between atoms: _290  and  _293
REMARK  122  A    between atoms: _293  and  _294
REMARK  123  A    between atoms: _299  and  _301
REMARK  124  A    between atoms: _301  and  _302
REMARK  125  A    between atoms: _304  and  _306
REMARK  126  A    between atoms: _306  and  _307
REMARK  127  A    between atoms: _306  and  _309
REMARK  128  A    between atoms: _309  and  _310
REMARK  129  A    between atoms: _315  and  _316
REMARK  130  A    between atoms: _318  and  _320
REMARK  131  A    between atoms: _320  and  _321
REMARK  132  A    between atoms: _320  and  _323
REMARK  133  A    between atoms: _323  and  _324
REMARK  134  A    between atoms: _330  and  _332
REMARK  135  A    between atoms: _332  and  _333
REMARK  136  A    between atoms: _332  and  _335
REMARK  137  A    between atoms: _335  and  _336
REMARK  138  A    between atoms: _339  and  _341
REMARK  139  A    between atoms: _341  and  _342
REMARK  140  A    between atoms: _341  and  _344
REMARK  141  A    between atoms: _344  and  _345
REMARK  142  A    between atoms: _345  and  _346
REMARK  143  A    between atoms: _349  and  _351
REMARK  144  A    between atoms: _351  and  _352
REMARK  145  A    between atoms: _351  and  _354
REMARK  146  A    between atoms: _354  and  _355
REMARK  147  A    between atoms: _358  and  _360
REMARK  148  A    between atoms: _360  and  _361
REMARK  149  A    between atoms: _360  and  _363
REMARK  150  A    between atoms: _363  and  _364
REMARK  151  A    between atoms: _367  and  _369
REMARK  152  A    between atoms: _369  and  _370
REMARK  153  A    between atoms: _372  and  _374
REMARK  154  A    between atoms: _374  and  _375
REMARK  155  A    between atoms: _374  and  _377
REMARK  156  A    between atoms: _380  and  _382
REMARK  157  A    between atoms: _382  and  _383
REMARK  158  A    between atoms: _382  and  _385
REMARK  159  A    between atoms: _385  and  _386
REMARK  160  A    between atoms: _388  and  _390
REMARK  161  A    between atoms: _390  and  _391
REMARK  162  A    between atoms: _390  and  _393
REMARK  163  A    between atoms: _393  and  _394
REMARK  164  A    between atoms: _394  and  _395
REMARK  165  A    between atoms: _397  and  _399
REMARK  166  A    between atoms: _399  and  _400
REMARK  167  A    between atoms: _399  and  _402
REMARK  168  A    between atoms: _402  and  _403
REMARK  169  A    between atoms: _408  and  _409
REMARK  170  A    between atoms: _411  and  _413
REMARK  171  A    between atoms: _413  and  _414
REMARK  172  A    between atoms: _413  and  _416
REMARK  173  A    between atoms: _416  and  _417
REMARK  174  A    between atoms: _420  and  _422
REMARK  175  A    between atoms: _422  and  _423
REMARK  176  A    between atoms: _422  and  _425
REMARK  177  A    between atoms: _425  and  _426
REMARK  178  A    between atoms: _428  and  _430
REMARK  179  A    between atoms: _430  and  _431
REMARK  180  A    between atoms: _430  and  _433
REMARK  181  A    between atoms: _433  and  _434
REMARK  182  A    between atoms: _437  and  _439
REMARK  183  A    between atoms: _439  and  _440
REMARK  184  A    between atoms: _439  and  _442
REMARK  185  A    between atoms: _442  and  _443
REMARK  186  A    between atoms: _448  and  _449
REMARK  187  A    between atoms: _451  and  _453
REMARK  188  A    between atoms: _453  and  _454
REMARK  189  A    between atoms: _453  and  _456
REMARK  190  A    between atoms: _456  and  _457
REMARK  191  A    between atoms: _459  and  _461
REMARK  192  A    between atoms: _461  and  _462
REMARK  193  A    between atoms: _461  and  _464
REMARK  194  A    between atoms: _464  and  _465
REMARK  195  A    between atoms: _471  and  _473
REMARK  196  A    between atoms: _473  and  _474
REMARK  197  A    between atoms: _473  and  _476
REMARK  198  A    between atoms: _476  and  _477
REMARK  199  A    between atoms: _477  and  _478
REMARK  200  A    between atoms: _478  and  _479
REMARK  201  A    between atoms: _488  and  _490
REMARK  202  A    between atoms: _490  and  _491
REMARK  203  A    between atoms: _490  and  _493
REMARK  204  A    between atoms: _496  and  _498
REMARK  205  A    between atoms: _498  and  _499
REMARK  206  A    between atoms: _501  and  _503
REMARK  207  A    between atoms: _503  and  _504
REMARK  208  A    between atoms: _503  and  _506
REMARK  209  A    between atoms: _506  and  _507
REMARK  210  A    between atoms: _510  and  _512
REMARK  211  A    between atoms: _512  and  _513
REMARK  212  A    between atoms: _512  and  _515
REMARK  213  A    between atoms: _515  and  _516
REMARK  214  A    between atoms: _516  and  _517
REMARK  215  A    between atoms: _519  and  _521
REMARK  216  A    between atoms: _521  and  _522
REMARK  217  A    between atoms: _521  and  _524
REMARK  218  A    between atoms: _524  and  _525
REMARK  219  A    between atoms: _531  and  _533
REMARK  220  A    between atoms: _533  and  _534
REMARK  221  A    between atoms: _533  and  _536
REMARK  222  A    between atoms: _536  and  _537
REMARK  223  A    between atoms: _542  and  _544
REMARK  224  A    between atoms: _544  and  _545
REMARK  225  A    between atoms: _544  and  _547
REMARK  226  A    between atoms: _547  and  _548
REMARK  227  A    between atoms: _558  and  _560
REMARK  228  A    between atoms: _560  and  _561
REMARK  229  A    between atoms: _560  and  _563
REMARK  230  A    between atoms: _566  and  _568
REMARK  231  A    between atoms: _568  and  _569
REMARK  232  A    between atoms: _568  and  _571
REMARK  233  A    between atoms: _571  and  _572
REMARK  234  A    between atoms: _575  and  _577
REMARK  235  A    between atoms: _577  and  _578
REMARK  236  A    between atoms: _577  and  _580
REMARK  237  A    between atoms: _580  and  _581
REMARK  238  A    between atoms: _581  and  _582
REMARK  239  A    between atoms: _584  and  _586
REMARK  240  A    between atoms: _586  and  _587
REMARK  241  A    between atoms: _586  and  _589
REMARK  242  A    between atoms: _589  and  _590
REMARK  243  A    between atoms: _593  and  _595
REMARK  244  A    between atoms: _595  and  _596
REMARK  245  A    between atoms: _595  and  _598
REMARK  246  A    between atoms: _598  and  _599
REMARK  247  A    between atoms: _602  and  _604
REMARK  248  A    between atoms: _604  and  _605
REMARK  249  A    between atoms: _607  and  _609
REMARK  250  A    between atoms: _609  and  _610
REMARK  251  A    between atoms: _609  and  _612
REMARK  252  A    between atoms: _612  and  _613
REMARK  253  A    between atoms: _615  and  _617
REMARK  254  A    between atoms: _617  and  _618
REMARK  255  A    between atoms: _617  and  _620
REMARK  256  A    between atoms: _620  and  _621
REMARK  257  A    between atoms: _631  and  _633
REMARK  258  A    between atoms: _633  and  _634
REMARK  259  A    between atoms: _633  and  _636
REMARK  260  A    between atoms: _636  and  _637
REMARK  261  A    between atoms: _639  and  _641
REMARK  262  A    between atoms: _641  and  _642
REMARK  263  A    between atoms: _641  and  _644
REMARK  264  A    between atoms: _644  and  _645
REMARK  265  A    between atoms: _648  and  _650
REMARK  266  A    between atoms: _650  and  _651
REMARK  267  A    between atoms: _654  and  _656
REMARK  268  A    between atoms: _656  and  _657
REMARK  269  A    between atoms: _656  and  _659
REMARK  270  A    between atoms: _659  and  _660
REMARK  271  A    between atoms: _662  and  _664
REMARK  272  A    between atoms: _664  and  _665
REMARK  273  A    between atoms: _664  and  _667
REMARK  274  A    between atoms: _667  and  _668
REMARK  275  A    between atoms: _668  and  _669
REMARK  276  A    between atoms: _673  and  _674
REMARK  277  A    between atoms: _679  and  _681
REMARK  278  A    between atoms: _681  and  _682
REMARK  279  A    between atoms: _681  and  _684
REMARK  280  A    between atoms: _684  and  _685
REMARK  281  A    between atoms: _687  and  _689
REMARK  282  A    between atoms: _689  and  _690
REMARK  283  A    between atoms: _689  and  _692
REMARK  284  A    between atoms: _692  and  _693
REMARK  285  A    between atoms: _693  and  _694
REMARK  286  A    between atoms: _699  and  _701
REMARK  287  A    between atoms: _701  and  _702
REMARK  288  A    between atoms: _701  and  _704
REMARK  289  A    between atoms: _704  and  _705
REMARK  290  A    between atoms: _705  and  _706
REMARK  291  A    between atoms: _711  and  _713
REMARK  292  A    between atoms: _713  and  _714
REMARK  293  A    between atoms: _713  and  _716
REMARK  294  A    between atoms: _716  and  _717
REMARK  295  A    between atoms: _720  and  _722
REMARK  296  A    between atoms: _722  and  _723
REMARK  297  A    between atoms: _722  and  _725
REMARK  298  A    between atoms: _725  and  _726
REMARK  299  A    between atoms: _729  and  _731
REMARK  300  A    between atoms: _731  and  _732
REMARK  301  A    between atoms: _731  and  _734
REMARK  302  A    between atoms: _734  and  _735
REMARK  303  A    between atoms: _741  and  _743
REMARK  304  A    between atoms: _743  and  _744
REMARK  305  A    between atoms: _743  and  _746
REMARK  306  A    between atoms: _746  and  _747
REMARK  307  A    between atoms: _752  and  _753
REMARK  308  A    between atoms: _755  and  _757
REMARK  309  A    between atoms: _757  and  _758
REMARK  310  A    between atoms: _757  and  _760
REMARK  311  A    between atoms: _760  and  _761
REMARK  312  A    between atoms: _767  and  _769
REMARK  313  A    between atoms: _769  and  _770
REMARK  314  A    between atoms: _769  and  _772
REMARK  315  A    between atoms: _772  and  _773
REMARK  316  A    between atoms: _778  and  _780
REMARK  317  A    between atoms: _780  and  _781
REMARK  318  A    between atoms: _780  and  _783
REMARK  319  A    between atoms: _783  and  _784
REMARK  320  A    between atoms: _784  and  _785
REMARK                            x       y       z     vdW  Elec       q    Type
REMARK                         _______ _______ _______ _____ _____    ______ ____
ROOT
ATOM      1  O   HOH     1      -0.361  56.083  27.528  0.00  0.00    +0.000 OA
ENDROOT
TORSDOF 0
REMARK  Name = ../refined-set-2016/3drf/3drf_pocket.pdb
REMARK  320 active torsions:
REMARK  status: ('A' for Active; 'I' for Inactive)
REMARK    1  A    between atoms: _1  and  _3
REMARK    2  A    between atoms: _3  and  _4
REMARK    3  A    between atoms: _3  and  _6
REMARK    4  A    between atoms: _6  and  _7
REMARK    5  A    between atoms: _12  and  _13
REMARK    6  A    between atoms: _15  and  _17
REMARK    7  A    between atoms: _17  and  _18
REMARK    8  A    between atoms: _17  and  _20
REMARK    9  A    between atoms: _20  and  _21
REMARK   10  A    between atoms: _21  and  _22
REMARK   11  A    between atoms: _27  and  _29
REMARK   12  A    between atoms: _29  and  _30
REMARK   13  A    between atoms: _29  and  _32
REMARK   14  A    between atoms: _32  and  _33
REMARK   15  A    between atoms: _35  and  _37
REMARK   16  A    between atoms: _37  and  _38
REMARK   17  A    between atoms: _37  and  _40
REMARK   18  A    between atoms: _40  and  _41
REMARK   19  A    between atoms: _44  and  _46
REMARK   20  A    between atoms: _46  and  _47
REMARK   21  A    between atoms: _46  and  _49
REMARK   22  A    between atoms: _49  and  _50
REMARK   23  A    between atoms: _52  and  _54
REMARK   24  A    between atoms: _54  and  _55
REMARK   25  A    between atoms: _54  and  _57
REMARK   26  A    between atoms: _57  and  _58
REMARK   27  A    between atoms: _60  and  _62
REMARK   28  A    between atoms: _62  and  _63
REMARK   29  A    between atoms: _65  and  _67
REMARK   30  A    between atoms: _67  and  _68
REMARK   31  A    between atoms: _67  and  _70
REMARK   32  A    between atoms: _70  and  _71
REMARK   33  A    between atoms: _73  and  _75
REMARK   34  A    between atoms: _75  and  _76
REMARK   35  A    between atoms: _75  and  _78
REMARK   36  A    between atoms: _78  and  _79
REMARK   37  A    between atoms: _84  and  _86
REMARK   38  A    between atoms: _86  and  _87
REMARK   39  A    between atoms: _86  and  _89
REMARK   40  A    between atoms: _89  and  _90
REMARK   41  A    between atoms: _93  and  _95
REMARK   42  A    between atoms: _95  and  _96
REMARK   43  A    between atoms: _99  and  _101
REMARK   44  A    between atoms: _101  and  _102
REMARK   45  A    between atoms: _101  and  _104
REMARK   46  A    between atoms: _104  and  _105
REMARK   47  A    between atoms: _108  and  _110
REMARK   48  A    between atoms: _110  and  _111
REMARK   49  A    between atoms: _110  and  _113
REMARK   50  A    between atoms: _113  and  _114
REMARK   51  A    between atoms: _120  and  _122
REMARK   52  A    between atoms: _122  and  _123
REMARK   53  A    between atoms: _126  and  _128
REMARK   54  A    between atoms: _128  and  _129
REMARK   55  A    between atoms: _128  and  _131
REMARK   56  A    between atoms: _131  and  _132
REMARK   57  A    between atoms: _135  and  _137
REMARK   58  A    between atoms: _137  and  _138
REMARK   59  A    between atoms: _140  and  _142
REMARK   60  A    between atoms: _142  and  _143
REMARK   61  A    between atoms: _142  and  _145
REMARK   62  A    between atoms: _145  and  _146
REMARK   63  A    between atoms: _146  and  _147
REMARK   64  A    between atoms: _152  and  _154
REMARK   65  A    between atoms: _154  and  _155
REMARK   66  A    between atoms: _157  and  _159
REMARK   67  A    between atoms: _159  and  _160
REMARK   68  A    between atoms: _159  and  _162
REMARK   69  A    between atoms: _162  and  _163
REMARK   70  A    between atoms: _166  and  _168
REMARK   71  A    between atoms: _168  and  _169
REMARK   72  A    between atoms: _168  and  _171
REMARK   73  A    between atoms: _171  and  _172
REMARK   74  A    between atoms: _178  and  _180
REMARK   75  A    between atoms: _180  and  _181
REMARK   76  A    between atoms: _180  and  _183
REMARK   77  A    between atoms: _183  and  _184
REMARK   78  A    between atoms: _187  and  _189
REMARK   79  A    between atoms: _189  and  _190
REMARK   80  A    between atoms: _189  and  _192
REMARK   81  A    between atoms: _192  and  _193
REMARK   82  A    between atoms: _199  and  _201
REMARK   83  A    between atoms: _201  and  _202
REMARK   84  A    between atoms: _201  and  _204
REMARK   85  A    between atoms: _204  and  _205
REMARK   86  A    between atoms: _211  and  _213
REMARK   87  A    between atoms: _213  and  _214
REMARK   88  A    between atoms: _213  and  _216
REMARK   89  A    between atoms: _216  and  _217
REMARK   90  A    between atoms: _220  and  _222
REMARK   91  A    between atoms: _222  and  _223
REMARK   92  A    between atoms: _222  and  _225
REMARK   93  A    between atoms: _225  and  _226
REMARK   94  A    between atoms: _229  and  _231
REMARK   95  A    between atoms: _231  and  _232
REMARK   96  A    between atoms: _231  and  _234
REMARK   97  A    between atoms: _234  and  _235
REMARK   98  A    between atoms: _235  and  _236
REMARK   99  A    between atoms: _236  and  _237
REMARK  100  A    between atoms: _246  and  _248
REMARK  101  A    between atoms: _248  and  _249
REMARK  102  A    between atoms: _248  and  _251
REMARK  103  A    between atoms: _251  and  _252
REMARK  104  A    between atoms: _255  and  _257
REMARK  105  A    between atoms: _257  and  _258
REMARK  106  A    between atoms: _257  and  _260
REMARK  107  A    between atoms: _260  and  _261
REMARK  108  A    between atoms: _263  and  _265
REMARK  109  A    between atoms: _265  and  _266
REMARK  110  A    between atoms: _265  and  _268
REMARK  111  A    between atoms: _268  and  _269
REMARK  112  A    between atoms: _269  and  _270
REMARK  113  A    between atoms: _275  and  _277
REMARK  114  A    between atoms: _277  and  _278
REMARK  115  A    between atoms: _277  and  _280
REMARK  116  A    between atoms: _280  and  _281
REMARK  117  A    between atoms: _283  and  _285
REMARK  118  A    between atoms: _285  and  _286
REMARK  119  A    between atoms: _288  and  _290
REMARK  120  A    between atoms: _290  and  _291
REMARK  121  A    between atoms: _290  and  _293
REMARK  122  A    between atoms: _293  and  _294
REMARK  123  A    between atoms: _299  and  _301
REMARK  124  A    between atoms: _301  and  _302
REMARK  125  A    between atoms: _304  and  _306
REMARK  126  A    between atoms: _306  and  _307
REMARK  127  A    between atoms: _306  and  _309
REMARK  128  A    between atoms: _309  and  _310
REMARK  129  A    between atoms: _315  and  _316
REMARK  130  A    between atoms: _318  and  _320
REMARK  131  A    between atoms: _320  and  _321
REMARK  132  A    between atoms: _320  and  _323
REMARK  133  A    between atoms: _323  and  _324
REMARK  134  A    between atoms: _330  and  _332
REMARK  135  A    between atoms: _332  and  _333
REMARK  136  A    between atoms: _332  and  _335
REMARK  137  A    between atoms: _335  and  _336
REMARK  138  A    between atoms: _339  and  _341
REMARK  139  A    between atoms: _341  and  _342
REMARK  140  A    between atoms: _341  and  _344
REMARK  141  A    between atoms: _344  and  _345
REMARK  142  A    between atoms: _345  and  _346
REMARK  143  A    between atoms: _349  and  _351
REMARK  144  A    between atoms: _351  and  _352
REMARK  145  A    between atoms: _351  and  _354
REMARK  146  A    between atoms: _354  and  _355
REMARK  147  A    between atoms: _358  and  _360
REMARK  148  A    between atoms: _360  and  _361
REMARK  149  A    between atoms: _360  and  _363
REMARK  150  A    between atoms: _363  and  _364
REMARK  151  A    between atoms: _367  and  _369
REMARK  152  A    between atoms: _369  and  _370
REMARK  153  A    between atoms: _372  and  _374
REMARK  154  A    between atoms: _374  and  _375
REMARK  155  A    between atoms: _374  and  _377
REMARK  156  A    between atoms: _380  and  _382
REMARK  157  A    between atoms: _382  and  _383
REMARK  158  A    between atoms: _382  and  _385
REMARK  159  A    between atoms: _385  and  _386
REMARK  160  A    between atoms: _388  and  _390
REMARK  161  A    between atoms: _390  and  _391
REMARK  162  A    between atoms: _390  and  _393
REMARK  163  A    between atoms: _393  and  _394
REMARK  164  A    between atoms: _394  and  _395
REMARK  165  A    between atoms: _397  and  _399
REMARK  166  A    between atoms: _399  and  _400
REMARK  167  A    between atoms: _399  and  _402
REMARK  168  A    between atoms: _402  and  _403
REMARK  169  A    between atoms: _408  and  _409
REMARK  170  A    between atoms: _411  and  _413
REMARK  171  A    between atoms: _413  and  _414
REMARK  172  A    between atoms: _413  and  _416
REMARK  173  A    between atoms: _416  and  _417
REMARK  174  A    between atoms: _420  and  _422
REMARK  175  A    between atoms: _422  and  _423
REMARK  176  A    between atoms: _422  and  _425
REMARK  177  A    between atoms: _425  and  _426
REMARK  178  A    between atoms: _428  and  _430
REMARK  179  A    between atoms: _430  and  _431
REMARK  180  A    between atoms: _430  and  _433
REMARK  181  A    between atoms: _433  and  _434
REMARK  182  A    between atoms: _437  and  _439
REMARK  183  A    between atoms: _439  and  _440
REMARK  184  A    between atoms: _439  and  _442
REMARK  185  A    between atoms: _442  and  _443
REMARK  186  A    between atoms: _448  and  _449
REMARK  187  A    between atoms: _451  and  _453
REMARK  188  A    between atoms: _453  and  _454
REMARK  189  A    between atoms: _453  and  _456
REMARK  190  A    between atoms: _456  and  _457
REMARK  191  A    between atoms: _459  and  _461
REMARK  192  A    between atoms: _461  and  _462
REMARK  193  A    between atoms: _461  and  _464
REMARK  194  A    between atoms: _464  and  _465
REMARK  195  A    between atoms: _471  and  _473
REMARK  196  A    between atoms: _473  and  _474
REMARK  197  A    between atoms: _473  and  _476
REMARK  198  A    between atoms: _476  and  _477
REMARK  199  A    between atoms: _477  and  _478
REMARK  200  A    between atoms: _478  and  _479
REMARK  201  A    between atoms: _488  and  _490
REMARK  202  A    between atoms: _490  and  _491
REMARK  203  A    between atoms: _490  and  _493
REMARK  204  A    between atoms: _496  and  _498
REMARK  205  A    between atoms: _498  and  _499
REMARK  206  A    between atoms: _501  and  _503
REMARK  207  A    between atoms: _503  and  _504
REMARK  208  A    between atoms: _503  and  _506
REMARK  209  A    between atoms: _506  and  _507
REMARK  210  A    between atoms: _510  and  _512
REMARK  211  A    between atoms: _512  and  _513
REMARK  212  A    between atoms: _512  and  _515
REMARK  213  A    between atoms: _515  and  _516
REMARK  214  A    between atoms: _516  and  _517
REMARK  215  A    between atoms: _519  and  _521
REMARK  216  A    between atoms: _521  and  _522
REMARK  217  A    between atoms: _521  and  _524
REMARK  218  A    between atoms: _524  and  _525
REMARK  219  A    between atoms: _531  and  _533
REMARK  220  A    between atoms: _533  and  _534
REMARK  221  A    between atoms: _533  and  _536
REMARK  222  A    between atoms: _536  and  _537
REMARK  223  A    between atoms: _542  and  _544
REMARK  224  A    between atoms: _544  and  _545
REMARK  225  A    between atoms: _544  and  _547
REMARK  226  A    between atoms: _547  and  _548
REMARK  227  A    between atoms: _558  and  _560
REMARK  228  A    between atoms: _560  and  _561
REMARK  229  A    between atoms: _560  and  _563
REMARK  230  A    between atoms: _566  and  _568
REMARK  231  A    between atoms: _568  and  _569
REMARK  232  A    between atoms: _568  and  _571
REMARK  233  A    between atoms: _571  and  _572
REMARK  234  A    between atoms: _575  and  _577
REMARK  235  A    between atoms: _577  and  _578
REMARK  236  A    between atoms: _577  and  _580
REMARK  237  A    between atoms: _580  and  _581
REMARK  238  A    between atoms: _581  and  _582
REMARK  239  A    between atoms: _584  and  _586
REMARK  240  A    between atoms: _586  and  _587
REMARK  241  A    between atoms: _586  and  _589
REMARK  242  A    between atoms: _589  and  _590
REMARK  243  A    between atoms: _593  and  _595
REMARK  244  A    between atoms: _595  and  _596
REMARK  245  A    between atoms: _595  and  _598
REMARK  246  A    between atoms: _598  and  _599
REMARK  247  A    between atoms: _602  and  _604
REMARK  248  A    between atoms: _604  and  _605
REMARK  249  A    between atoms: _607  and  _609
REMARK  250  A    between atoms: _609  and  _610
REMARK  251  A    between atoms: _609  and  _612
REMARK  252  A    between atoms: _612  and  _613
REMARK  253  A    between atoms: _615  and  _617
REMARK  254  A    between atoms: _617  and  _618
REMARK  255  A    between atoms: _617  and  _620
REMARK  256  A    between atoms: _620  and  _621
REMARK  257  A    between atoms: _631  and  _633
REMARK  258  A    between atoms: _633  and  _634
REMARK  259  A    between atoms: _633  and  _636
REMARK  260  A    between atoms: _636  and  _637
REMARK  261  A    between atoms: _639  and  _641
REMARK  262  A    between atoms: _641  and  _642
REMARK  263  A    between atoms: _641  and  _644
REMARK  264  A    between atoms: _644  and  _645
REMARK  265  A    between atoms: _648  and  _650
REMARK  266  A    between atoms: _650  and  _651
REMARK  267  A    between atoms: _654  and  _656
REMARK  268  A    between atoms: _656  and  _657
REMARK  269  A    between atoms: _656  and  _659
REMARK  270  A    between atoms: _659  and  _660
REMARK  271  A    between atoms: _662  and  _664
REMARK  272  A    between atoms: _664  and  _665
REMARK  273  A    between atoms: _664  and  _667
REMARK  274  A    between atoms: _667  and  _668
REMARK  275  A    between atoms: _668  and  _669
REMARK  276  A    between atoms: _673  and  _674
REMARK  277  A    between atoms: _679  and  _681
REMARK  278  A    between atoms: _681  and  _682
REMARK  279  A    between atoms: _681  and  _684
REMARK  280  A    between atoms: _684  and  _685
REMARK  281  A    between atoms: _687  and  _689
REMARK  282  A    between atoms: _689  and  _690
REMARK  283  A    between atoms: _689  and  _692
REMARK  284  A    between atoms: _692  and  _693
REMARK  285  A    between atoms: _693  and  _694
REMARK  286  A    between atoms: _699  and  _701
REMARK  287  A    between atoms: _701  and  _702
REMARK  288  A    between atoms: _701  and  _704
REMARK  289  A    between atoms: _704  and  _705
REMARK  290  A    between atoms: _705  and  _706
REMARK  291  A    between atoms: _711  and  _713
REMARK  292  A    between atoms: _713  and  _714
REMARK  293  A    between atoms: _713  and  _716
REMARK  294  A    between atoms: _716  and  _717
REMARK  295  A    between atoms: _720  and  _722
REMARK  296  A    between atoms: _722  and  _723
REMARK  297  A    between atoms: _722  and  _725
REMARK  298  A    between atoms: _725  and  _726
REMARK  299  A    between atoms: _729  and  _731
REMARK  300  A    between atoms: _731  and  _732
REMARK  301  A    between atoms: _731  and  _734
REMARK  302  A    between atoms: _734  and  _735
REMARK  303  A    between atoms: _741  and  _743
REMARK  304  A    between atoms: _743  and  _744
REMARK  305  A    between atoms: _743  and  _746
REMARK  306  A    between atoms: _746  and  _747
REMARK  307  A    between atoms: _752  and  _753
REMARK  308  A    between atoms: _755  and  _757
REMARK  309  A    between atoms: _757  and  _758
REMARK  310  A    between atoms: _757  and  _760
REMARK  311  A    between atoms: _760  and  _761
REMARK  312  A    between atoms: _767  and  _769
REMARK  313  A    between atoms: _769  and  _770
REMARK  314  A    between atoms: _769  and  _772
REMARK  315  A    between atoms: _772  and  _773
REMARK  316  A    between atoms: _778  and  _780
REMARK  317  A    between atoms: _780  and  _781
REMARK  318  A    between atoms: _780  and  _783
REMARK  319  A    between atoms: _783  and  _784
REMARK  320  A    between atoms: _784  and  _785
REMARK                            x       y       z     vdW  Elec       q    Type
REMARK                         _______ _______ _______ _____ _____    ______ ____
ROOT
ATOM      1  O   HOH     1      -1.024  46.954  33.271  0.00  0.00    +0.000 OA
ENDROOT
TORSDOF 0
REMARK  Name = ../refined-set-2016/3drf/3drf_pocket.pdb
REMARK  320 active torsions:
REMARK  status: ('A' for Active; 'I' for Inactive)
REMARK    1  A    between atoms: _1  and  _3
REMARK    2  A    between atoms: _3  and  _4
REMARK    3  A    between atoms: _3  and  _6
REMARK    4  A    between atoms: _6  and  _7
REMARK    5  A    between atoms: _12  and  _13
REMARK    6  A    between atoms: _15  and  _17
REMARK    7  A    between atoms: _17  and  _18
REMARK    8  A    between atoms: _17  and  _20
REMARK    9  A    between atoms: _20  and  _21
REMARK   10  A    between atoms: _21  and  _22
REMARK   11  A    between atoms: _27  and  _29
REMARK   12  A    between atoms: _29  and  _30
REMARK   13  A    between atoms: _29  and  _32
REMARK   14  A    between atoms: _32  and  _33
REMARK   15  A    between atoms: _35  and  _37
REMARK   16  A    between atoms: _37  and  _38
REMARK   17  A    between atoms: _37  and  _40
REMARK   18  A    between atoms: _40  and  _41
REMARK   19  A    between atoms: _44  and  _46
REMARK   20  A    between atoms: _46  and  _47
REMARK   21  A    between atoms: _46  and  _49
REMARK   22  A    between atoms: _49  and  _50
REMARK   23  A    between atoms: _52  and  _54
REMARK   24  A    between atoms: _54  and  _55
REMARK   25  A    between atoms: _54  and  _57
REMARK   26  A    between atoms: _57  and  _58
REMARK   27  A    between atoms: _60  and  _62
REMARK   28  A    between atoms: _62  and  _63
REMARK   29  A    between atoms: _65  and  _67
REMARK   30  A    between atoms: _67  and  _68
REMARK   31  A    between atoms: _67  and  _70
REMARK   32  A    between atoms: _70  and  _71
REMARK   33  A    between atoms: _73  and  _75
REMARK   34  A    between atoms: _75  and  _76
REMARK   35  A    between atoms: _75  and  _78
REMARK   36  A    between atoms: _78  and  _79
REMARK   37  A    between atoms: _84  and  _86
REMARK   38  A    between atoms: _86  and  _87
REMARK   39  A    between atoms: _86  and  _89
REMARK   40  A    between atoms: _89  and  _90
REMARK   41  A    between atoms: _93  and  _95
REMARK   42  A    between atoms: _95  and  _96
REMARK   43  A    between atoms: _99  and  _101
REMARK   44  A    between atoms: _101  and  _102
REMARK   45  A    between atoms: _101  and  _104
REMARK   46  A    between atoms: _104  and  _105
REMARK   47  A    between atoms: _108  and  _110
REMARK   48  A    between atoms: _110  and  _111
REMARK   49  A    between atoms: _110  and  _113
REMARK   50  A    between atoms: _113  and  _114
REMARK   51  A    between atoms: _120  and  _122
REMARK   52  A    between atoms: _122  and  _123
REMARK   53  A    between atoms: _126  and  _128
REMARK   54  A    between atoms: _128  and  _129
REMARK   55  A    between atoms: _128  and  _131
REMARK   56  A    between atoms: _131  and  _132
REMARK   57  A    between atoms: _135  and  _137
REMARK   58  A    between atoms: _137  and  _138
REMARK   59  A    between atoms: _140  and  _142
REMARK   60  A    between atoms: _142  and  _143
REMARK   61  A    between atoms: _142  and  _145
REMARK   62  A    between atoms: _145  and  _146
REMARK   63  A    between atoms: _146  and  _147
REMARK   64  A    between atoms: _152  and  _154
REMARK   65  A    between atoms: _154  and  _155
REMARK   66  A    between atoms: _157  and  _159
REMARK   67  A    between atoms: _159  and  _160
REMARK   68  A    between atoms: _159  and  _162
REMARK   69  A    between atoms: _162  and  _163
REMARK   70  A    between atoms: _166  and  _168
REMARK   71  A    between atoms: _168  and  _169
REMARK   72  A    between atoms: _168  and  _171
REMARK   73  A    between atoms: _171  and  _172
REMARK   74  A    between atoms: _178  and  _180
REMARK   75  A    between atoms: _180  and  _181
REMARK   76  A    between atoms: _180  and  _183
REMARK   77  A    between atoms: _183  and  _184
REMARK   78  A    between atoms: _187  and  _189
REMARK   79  A    between atoms: _189  and  _190
REMARK   80  A    between atoms: _189  and  _192
REMARK   81  A    between atoms: _192  and  _193
REMARK   82  A    between atoms: _199  and  _201
REMARK   83  A    between atoms: _201  and  _202
REMARK   84  A    between atoms: _201  and  _204
REMARK   85  A    between atoms: _204  and  _205
REMARK   86  A    between atoms: _211  and  _213
REMARK   87  A    between atoms: _213  and  _214
REMARK   88  A    between atoms: _213  and  _216
REMARK   89  A    between atoms: _216  and  _217
REMARK   90  A    between atoms: _220  and  _222
REMARK   91  A    between atoms: _222  and  _223
REMARK   92  A    between atoms: _222  and  _225
REMARK   93  A    between atoms: _225  and  _226
REMARK   94  A    between atoms: _229  and  _231
REMARK   95  A    between atoms: _231  and  _232
REMARK   96  A    between atoms: _231  and  _234
REMARK   97  A    between atoms: _234  and  _235
REMARK   98  A    between atoms: _235  and  _236
REMARK   99  A    between atoms: _236  and  _237
REMARK  100  A    between atoms: _246  and  _248
REMARK  101  A    between atoms: _248  and  _249
REMARK  102  A    between atoms: _248  and  _251
REMARK  103  A    between atoms: _251  and  _252
REMARK  104  A    between atoms: _255  and  _257
REMARK  105  A    between atoms: _257  and  _258
REMARK  106  A    between atoms: _257  and  _260
REMARK  107  A    between atoms: _260  and  _261
REMARK  108  A    between atoms: _263  and  _265
REMARK  109  A    between atoms: _265  and  _266
REMARK  110  A    between atoms: _265  and  _268
REMARK  111  A    between atoms: _268  and  _269
REMARK  112  A    between atoms: _269  and  _270
REMARK  113  A    between atoms: _275  and  _277
REMARK  114  A    between atoms: _277  and  _278
REMARK  115  A    between atoms: _277  and  _280
REMARK  116  A    between atoms: _280  and  _281
REMARK  117  A    between atoms: _283  and  _285
REMARK  118  A    between atoms: _285  and  _286
REMARK  119  A    between atoms: _288  and  _290
REMARK  120  A    between atoms: _290  and  _291
REMARK  121  A    between atoms: _290  and  _293
REMARK  122  A    between atoms: _293  and  _294
REMARK  123  A    between atoms: _299  and  _301
REMARK  124  A    between atoms: _301  and  _302
REMARK  125  A    between atoms: _304  and  _306
REMARK  126  A    between atoms: _306  and  _307
REMARK  127  A    between atoms: _306  and  _309
REMARK  128  A    between atoms: _309  and  _310
REMARK  129  A    between atoms: _315  and  _316
REMARK  130  A    between atoms: _318  and  _320
REMARK  131  A    between atoms: _320  and  _321
REMARK  132  A    between atoms: _320  and  _323
REMARK  133  A    between atoms: _323  and  _324
REMARK  134  A    between atoms: _330  and  _332
REMARK  135  A    between atoms: _332  and  _333
REMARK  136  A    between atoms: _332  and  _335
REMARK  137  A    between atoms: _335  and  _336
REMARK  138  A    between atoms: _339  and  _341
REMARK  139  A    between atoms: _341  and  _342
REMARK  140  A    between atoms: _341  and  _344
REMARK  141  A    between atoms: _344  and  _345
REMARK  142  A    between atoms: _345  and  _346
REMARK  143  A    between atoms: _349  and  _351
REMARK  144  A    between atoms: _351  and  _352
REMARK  145  A    between atoms: _351  and  _354
REMARK  146  A    between atoms: _354  and  _355
REMARK  147  A    between atoms: _358  and  _360
REMARK  148  A    between atoms: _360  and  _361
REMARK  149  A    between atoms: _360  and  _363
REMARK  150  A    between atoms: _363  and  _364
REMARK  151  A    between atoms: _367  and  _369
REMARK  152  A    between atoms: _369  and  _370
REMARK  153  A    between atoms: _372  and  _374
REMARK  154  A    between atoms: _374  and  _375
REMARK  155  A    between atoms: _374  and  _377
REMARK  156  A    between atoms: _380  and  _382
REMARK  157  A    between atoms: _382  and  _383
REMARK  158  A    between atoms: _382  and  _385
REMARK  159  A    between atoms: _385  and  _386
REMARK  160  A    between atoms: _388  and  _390
REMARK  161  A    between atoms: _390  and  _391
REMARK  162  A    between atoms: _390  and  _393
REMARK  163  A    between atoms: _393  and  _394
REMARK  164  A    between atoms: _394  and  _395
REMARK  165  A    between atoms: _397  and  _399
REMARK  166  A    between atoms: _399  and  _400
REMARK  167  A    between atoms: _399  and  _402
REMARK  168  A    between atoms: _402  and  _403
REMARK  169  A    between atoms: _408  and  _409
REMARK  170  A    between atoms: _411  and  _413
REMARK  171  A    between atoms: _413  and  _414
REMARK  172  A    between atoms: _413  and  _416
REMARK  173  A    between atoms: _416  and  _417
REMARK  174  A    between atoms: _420  and  _422
REMARK  175  A    between atoms: _422  and  _423
REMARK  176  A    between atoms: _422  and  _425
REMARK  177  A    between atoms: _425  and  _426
REMARK  178  A    between atoms: _428  and  _430
REMARK  179  A    between atoms: _430  and  _431
REMARK  180  A    between atoms: _430  and  _433
REMARK  181  A    between atoms: _433  and  _434
REMARK  182  A    between atoms: _437  and  _439
REMARK  183  A    between atoms: _439  and  _440
REMARK  184  A    between atoms: _439  and  _442
REMARK  185  A    between atoms: _442  and  _443
REMARK  186  A    between atoms: _448  and  _449
REMARK  187  A    between atoms: _451  and  _453
REMARK  188  A    between atoms: _453  and  _454
REMARK  189  A    between atoms: _453  and  _456
REMARK  190  A    between atoms: _456  and  _457
REMARK  191  A    between atoms: _459  and  _461
REMARK  192  A    between atoms: _461  and  _462
REMARK  193  A    between atoms: _461  and  _464
REMARK  194  A    between atoms: _464  and  _465
REMARK  195  A    between atoms: _471  and  _473
REMARK  196  A    between atoms: _473  and  _474
REMARK  197  A    between atoms: _473  and  _476
REMARK  198  A    between atoms: _476  and  _477
REMARK  199  A    between atoms: _477  and  _478
REMARK  200  A    between atoms: _478  and  _479
REMARK  201  A    between atoms: _488  and  _490
REMARK  202  A    between atoms: _490  and  _491
REMARK  203  A    between atoms: _490  and  _493
REMARK  204  A    between atoms: _496  and  _498
REMARK  205  A    between atoms: _498  and  _499
REMARK  206  A    between atoms: _501  and  _503
REMARK  207  A    between atoms: _503  and  _504
REMARK  208  A    between atoms: _503  and  _506
REMARK  209  A    between atoms: _506  and  _507
REMARK  210  A    between atoms: _510  and  _512
REMARK  211  A    between atoms: _512  and  _513
REMARK  212  A    between atoms: _512  and  _515
REMARK  213  A    between atoms: _515  and  _516
REMARK  214  A    between atoms: _516  and  _517
REMARK  215  A    between atoms: _519  and  _521
REMARK  216  A    between atoms: _521  and  _522
REMARK  217  A    between atoms: _521  and  _524
REMARK  218  A    between atoms: _524  and  _525
REMARK  219  A    between atoms: _531  and  _533
REMARK  220  A    between atoms: _533  and  _534
REMARK  221  A    between atoms: _533  and  _536
REMARK  222  A    between atoms: _536  and  _537
REMARK  223  A    between atoms: _542  and  _544
REMARK  224  A    between atoms: _544  and  _545
REMARK  225  A    between atoms: _544  and  _547
REMARK  226  A    between atoms: _547  and  _548
REMARK  227  A    between atoms: _558  and  _560
REMARK  228  A    between atoms: _560  and  _561
REMARK  229  A    between atoms: _560  and  _563
REMARK  230  A    between atoms: _566  and  _568
REMARK  231  A    between atoms: _568  and  _569
REMARK  232  A    between atoms: _568  and  _571
REMARK  233  A    between atoms: _571  and  _572
REMARK  234  A    between atoms: _575  and  _577
REMARK  235  A    between atoms: _577  and  _578
REMARK  236  A    between atoms: _577  and  _580
REMARK  237  A    between atoms: _580  and  _581
REMARK  238  A    between atoms: _581  and  _582
REMARK  239  A    between atoms: _584  and  _586
REMARK  240  A    between atoms: _586  and  _587
REMARK  241  A    between atoms: _586  and  _589
REMARK  242  A    between atoms: _589  and  _590
REMARK  243  A    between atoms: _593  and  _595
REMARK  244  A    between atoms: _595  and  _596
REMARK  245  A    between atoms: _595  and  _598
REMARK  246  A    between atoms: _598  and  _599
REMARK  247  A    between atoms: _602  and  _604
REMARK  248  A    between atoms: _604  and  _605
REMARK  249  A    between atoms: _607  and  _609
REMARK  250  A    between atoms: _609  and  _610
REMARK  251  A    between atoms: _609  and  _612
REMARK  252  A    between atoms: _612  and  _613
REMARK  253  A    between atoms: _615  and  _617
REMARK  254  A    between atoms: _617  and  _618
REMARK  255  A    between atoms: _617  and  _620
REMARK  256  A    between atoms: _620  and  _621
REMARK  257  A    between atoms: _631  and  _633
REMARK  258  A    between atoms: _633  and  _634
REMARK  259  A    between atoms: _633  and  _636
REMARK  260  A    between atoms: _636  and  _637
REMARK  261  A    between atoms: _639  and  _641
REMARK  262  A    between atoms: _641  and  _642
REMARK  263  A    between atoms: _641  and  _644
REMARK  264  A    between atoms: _644  and  _645
REMARK  265  A    between atoms: _648  and  _650
REMARK  266  A    between atoms: _650  and  _651
REMARK  267  A    between atoms: _654  and  _656
REMARK  268  A    between atoms: _656  and  _657
REMARK  269  A    between atoms: _656  and  _659
REMARK  270  A    between atoms: _659  and  _660
REMARK  271  A    between atoms: _662  and  _664
REMARK  272  A    between atoms: _664  and  _665
REMARK  273  A    between atoms: _664  and  _667
REMARK  274  A    between atoms: _667  and  _668
REMARK  275  A    between atoms: _668  and  _669
REMARK  276  A    between atoms: _673  and  _674
REMARK  277  A    between atoms: _679  and  _681
REMARK  278  A    between atoms: _681  and  _682
REMARK  279  A    between atoms: _681  and  _684
REMARK  280  A    between atoms: _684  and  _685
REMARK  281  A    between atoms: _687  and  _689
REMARK  282  A    between atoms: _689  and  _690
REMARK  283  A    between atoms: _689  and  _692
REMARK  284  A    between atoms: _692  and  _693
REMARK  285  A    between atoms: _693  and  _694
REMARK  286  A    between atoms: _699  and  _701
REMARK  287  A    between atoms: _701  and  _702
REMARK  288  A    between atoms: _701  and  _704
REMARK  289  A    between atoms: _704  and  _705
REMARK  290  A    between atoms: _705  and  _706
REMARK  291  A    between atoms: _711  and  _713
REMARK  292  A    between atoms: _713  and  _714
REMARK  293  A    between atoms: _713  and  _716
REMARK  294  A    between atoms: _716  and  _717
REMARK  295  A    between atoms: _720  and  _722
REMARK  296  A    between atoms: _722  and  _723
REMARK  297  A    between atoms: _722  and  _725
REMARK  298  A    between atoms: _725  and  _726
REMARK  299  A    between atoms: _729  and  _731
REMARK  300  A    between atoms: _731  and  _732
REMARK  301  A    between atoms: _731  and  _734
REMARK  302  A    between atoms: _734  and  _735
REMARK  303  A    between atoms: _741  and  _743
REMARK  304  A    between atoms: _743  and  _744
REMARK  305  A    between atoms: _743  and  _746
REMARK  306  A    between atoms: _746  and  _747
REMARK  307  A    between atoms: _752  and  _753
REMARK  308  A    between atoms: _755  and  _757
REMARK  309  A    between atoms: _757  and  _758
REMARK  310  A    between atoms: _757  and  _760
REMARK  311  A    between atoms: _760  and  _761
REMARK  312  A    between atoms: _767  and  _769
REMARK  313  A    between atoms: _769  and  _770
REMARK  314  A    between atoms: _769  and  _772
REMARK  315  A    between atoms: _772  and  _773
REMARK  316  A    between atoms: _778  and  _780
REMARK  317  A    between atoms: _780  and  _781
REMARK  318  A    between atoms: _780  and  _783
REMARK  319  A    between atoms: _783  and  _784
REMARK  320  A    between atoms: _784  and  _785
REMARK                            x       y       z     vdW  Elec       q    Type
REMARK                         _______ _______ _______ _____ _____    ______ ____
ROOT
ATOM      1  O   HOH     1       4.161  51.992  22.636  0.00  0.00    +0.000 OA
ENDROOT
TORSDOF 0
REMARK  Name = ../refined-set-2016/3drf/3drf_pocket.pdb
REMARK  320 active torsions:
REMARK  status: ('A' for Active; 'I' for Inactive)
REMARK    1  A    between atoms: _1  and  _3
REMARK    2  A    between atoms: _3  and  _4
REMARK    3  A    between atoms: _3  and  _6
REMARK    4  A    between atoms: _6  and  _7
REMARK    5  A    between atoms: _12  and  _13
REMARK    6  A    between atoms: _15  and  _17
REMARK    7  A    between atoms: _17  and  _18
REMARK    8  A    between atoms: _17  and  _20
REMARK    9  A    between atoms: _20  and  _21
REMARK   10  A    between atoms: _21  and  _22
REMARK   11  A    between atoms: _27  and  _29
REMARK   12  A    between atoms: _29  and  _30
REMARK   13  A    between atoms: _29  and  _32
REMARK   14  A    between atoms: _32  and  _33
REMARK   15  A    between atoms: _35  and  _37
REMARK   16  A    between atoms: _37  and  _38
REMARK   17  A    between atoms: _37  and  _40
REMARK   18  A    between atoms: _40  and  _41
REMARK   19  A    between atoms: _44  and  _46
REMARK   20  A    between atoms: _46  and  _47
REMARK   21  A    between atoms: _46  and  _49
REMARK   22  A    between atoms: _49  and  _50
REMARK   23  A    between atoms: _52  and  _54
REMARK   24  A    between atoms: _54  and  _55
REMARK   25  A    between atoms: _54  and  _57
REMARK   26  A    between atoms: _57  and  _58
REMARK   27  A    between atoms: _60  and  _62
REMARK   28  A    between atoms: _62  and  _63
REMARK   29  A    between atoms: _65  and  _67
REMARK   30  A    between atoms: _67  and  _68
REMARK   31  A    between atoms: _67  and  _70
REMARK   32  A    between atoms: _70  and  _71
REMARK   33  A    between atoms: _73  and  _75
REMARK   34  A    between atoms: _75  and  _76
REMARK   35  A    between atoms: _75  and  _78
REMARK   36  A    between atoms: _78  and  _79
REMARK   37  A    between atoms: _84  and  _86
REMARK   38  A    between atoms: _86  and  _87
REMARK   39  A    between atoms: _86  and  _89
REMARK   40  A    between atoms: _89  and  _90
REMARK   41  A    between atoms: _93  and  _95
REMARK   42  A    between atoms: _95  and  _96
REMARK   43  A    between atoms: _99  and  _101
REMARK   44  A    between atoms: _101  and  _102
REMARK   45  A    between atoms: _101  and  _104
REMARK   46  A    between atoms: _104  and  _105
REMARK   47  A    between atoms: _108  and  _110
REMARK   48  A    between atoms: _110  and  _111
REMARK   49  A    between atoms: _110  and  _113
REMARK   50  A    between atoms: _113  and  _114
REMARK   51  A    between atoms: _120  and  _122
REMARK   52  A    between atoms: _122  and  _123
REMARK   53  A    between atoms: _126  and  _128
REMARK   54  A    between atoms: _128  and  _129
REMARK   55  A    between atoms: _128  and  _131
REMARK   56  A    between atoms: _131  and  _132
REMARK   57  A    between atoms: _135  and  _137
REMARK   58  A    between atoms: _137  and  _138
REMARK   59  A    between atoms: _140  and  _142
REMARK   60  A    between atoms: _142  and  _143
REMARK   61  A    between atoms: _142  and  _145
REMARK   62  A    between atoms: _145  and  _146
REMARK   63  A    between atoms: _146  and  _147
REMARK   64  A    between atoms: _152  and  _154
REMARK   65  A    between atoms: _154  and  _155
REMARK   66  A    between atoms: _157  and  _159
REMARK   67  A    between atoms: _159  and  _160
REMARK   68  A    between atoms: _159  and  _162
REMARK   69  A    between atoms: _162  and  _163
REMARK   70  A    between atoms: _166  and  _168
REMARK   71  A    between atoms: _168  and  _169
REMARK   72  A    between atoms: _168  and  _171
REMARK   73  A    between atoms: _171  and  _172
REMARK   74  A    between atoms: _178  and  _180
REMARK   75  A    between atoms: _180  and  _181
REMARK   76  A    between atoms: _180  and  _183
REMARK   77  A    between atoms: _183  and  _184
REMARK   78  A    between atoms: _187  and  _189
REMARK   79  A    between atoms: _189  and  _190
REMARK   80  A    between atoms: _189  and  _192
REMARK   81  A    between atoms: _192  and  _193
REMARK   82  A    between atoms: _199  and  _201
REMARK   83  A    between atoms: _201  and  _202
REMARK   84  A    between atoms: _201  and  _204
REMARK   85  A    between atoms: _204  and  _205
REMARK   86  A    between atoms: _211  and  _213
REMARK   87  A    between atoms: _213  and  _214
REMARK   88  A    between atoms: _213  and  _216
REMARK   89  A    between atoms: _216  and  _217
REMARK   90  A    between atoms: _220  and  _222
REMARK   91  A    between atoms: _222  and  _223
REMARK   92  A    between atoms: _222  and  _225
REMARK   93  A    between atoms: _225  and  _226
REMARK   94  A    between atoms: _229  and  _231
REMARK   95  A    between atoms: _231  and  _232
REMARK   96  A    between atoms: _231  and  _234
REMARK   97  A    between atoms: _234  and  _235
REMARK   98  A    between atoms: _235  and  _236
REMARK   99  A    between atoms: _236  and  _237
REMARK  100  A    between atoms: _246  and  _248
REMARK  101  A    between atoms: _248  and  _249
REMARK  102  A    between atoms: _248  and  _251
REMARK  103  A    between atoms: _251  and  _252
REMARK  104  A    between atoms: _255  and  _257
REMARK  105  A    between atoms: _257  and  _258
REMARK  106  A    between atoms: _257  and  _260
REMARK  107  A    between atoms: _260  and  _261
REMARK  108  A    between atoms: _263  and  _265
REMARK  109  A    between atoms: _265  and  _266
REMARK  110  A    between atoms: _265  and  _268
REMARK  111  A    between atoms: _268  and  _269
REMARK  112  A    between atoms: _269  and  _270
REMARK  113  A    between atoms: _275  and  _277
REMARK  114  A    between atoms: _277  and  _278
REMARK  115  A    between atoms: _277  and  _280
REMARK  116  A    between atoms: _280  and  _281
REMARK  117  A    between atoms: _283  and  _285
REMARK  118  A    between atoms: _285  and  _286
REMARK  119  A    between atoms: _288  and  _290
REMARK  120  A    between atoms: _290  and  _291
REMARK  121  A    between atoms: _290  and  _293
REMARK  122  A    between atoms: _293  and  _294
REMARK  123  A    between atoms: _299  and  _301
REMARK  124  A    between atoms: _301  and  _302
REMARK  125  A    between atoms: _304  and  _306
REMARK  126  A    between atoms: _306  and  _307
REMARK  127  A    between atoms: _306  and  _309
REMARK  128  A    between atoms: _309  and  _310
REMARK  129  A    between atoms: _315  and  _316
REMARK  130  A    between atoms: _318  and  _320
REMARK  131  A    between atoms: _320  and  _321
REMARK  132  A    between atoms: _320  and  _323
REMARK  133  A    between atoms: _323  and  _324
REMARK  134  A    between atoms: _330  and  _332
REMARK  135  A    between atoms: _332  and  _333
REMARK  136  A    between atoms: _332  and  _335
REMARK  137  A    between atoms: _335  and  _336
REMARK  138  A    between atoms: _339  and  _341
REMARK  139  A    between atoms: _341  and  _342
REMARK  140  A    between atoms: _341  and  _344
REMARK  141  A    between atoms: _344  and  _345
REMARK  142  A    between atoms: _345  and  _346
REMARK  143  A    between atoms: _349  and  _351
REMARK  144  A    between atoms: _351  and  _352
REMARK  145  A    between atoms: _351  and  _354
REMARK  146  A    between atoms: _354  and  _355
REMARK  147  A    between atoms: _358  and  _360
REMARK  148  A    between atoms: _360  and  _361
REMARK  149  A    between atoms: _360  and  _363
REMARK  150  A    between atoms: _363  and  _364
REMARK  151  A    between atoms: _367  and  _369
REMARK  152  A    between atoms: _369  and  _370
REMARK  153  A    between atoms: _372  and  _374
REMARK  154  A    between atoms: _374  and  _375
REMARK  155  A    between atoms: _374  and  _377
REMARK  156  A    between atoms: _380  and  _382
REMARK  157  A    between atoms: _382  and  _383
REMARK  158  A    between atoms: _382  and  _385
REMARK  159  A    between atoms: _385  and  _386
REMARK  160  A    between atoms: _388  and  _390
REMARK  161  A    between atoms: _390  and  _391
REMARK  162  A    between atoms: _390  and  _393
REMARK  163  A    between atoms: _393  and  _394
REMARK  164  A    between atoms: _394  and  _395
REMARK  165  A    between atoms: _397  and  _399
REMARK  166  A    between atoms: _399  and  _400
REMARK  167  A    between atoms: _399  and  _402
REMARK  168  A    between atoms: _402  and  _403
REMARK  169  A    between atoms: _408  and  _409
REMARK  170  A    between atoms: _411  and  _413
REMARK  171  A    between atoms: _413  and  _414
REMARK  172  A    between atoms: _413  and  _416
REMARK  173  A    between atoms: _416  and  _417
REMARK  174  A    between atoms: _420  and  _422
REMARK  175  A    between atoms: _422  and  _423
REMARK  176  A    between atoms: _422  and  _425
REMARK  177  A    between atoms: _425  and  _426
REMARK  178  A    between atoms: _428  and  _430
REMARK  179  A    between atoms: _430  and  _431
REMARK  180  A    between atoms: _430  and  _433
REMARK  181  A    between atoms: _433  and  _434
REMARK  182  A    between atoms: _437  and  _439
REMARK  183  A    between atoms: _439  and  _440
REMARK  184  A    between atoms: _439  and  _442
REMARK  185  A    between atoms: _442  and  _443
REMARK  186  A    between atoms: _448  and  _449
REMARK  187  A    between atoms: _451  and  _453
REMARK  188  A    between atoms: _453  and  _454
REMARK  189  A    between atoms: _453  and  _456
REMARK  190  A    between atoms: _456  and  _457
REMARK  191  A    between atoms: _459  and  _461
REMARK  192  A    between atoms: _461  and  _462
REMARK  193  A    between atoms: _461  and  _464
REMARK  194  A    between atoms: _464  and  _465
REMARK  195  A    between atoms: _471  and  _473
REMARK  196  A    between atoms: _473  and  _474
REMARK  197  A    between atoms: _473  and  _476
REMARK  198  A    between atoms: _476  and  _477
REMARK  199  A    between atoms: _477  and  _478
REMARK  200  A    between atoms: _478  and  _479
REMARK  201  A    between atoms: _488  and  _490
REMARK  202  A    between atoms: _490  and  _491
REMARK  203  A    between atoms: _490  and  _493
REMARK  204  A    between atoms: _496  and  _498
REMARK  205  A    between atoms: _498  and  _499
REMARK  206  A    between atoms: _501  and  _503
REMARK  207  A    between atoms: _503  and  _504
REMARK  208  A    between atoms: _503  and  _506
REMARK  209  A    between atoms: _506  and  _507
REMARK  210  A    between atoms: _510  and  _512
REMARK  211  A    between atoms: _512  and  _513
REMARK  212  A    between atoms: _512  and  _515
REMARK  213  A    between atoms: _515  and  _516
REMARK  214  A    between atoms: _516  and  _517
REMARK  215  A    between atoms: _519  and  _521
REMARK  216  A    between atoms: _521  and  _522
REMARK  217  A    between atoms: _521  and  _524
REMARK  218  A    between atoms: _524  and  _525
REMARK  219  A    between atoms: _531  and  _533
REMARK  220  A    between atoms: _533  and  _534
REMARK  221  A    between atoms: _533  and  _536
REMARK  222  A    between atoms: _536  and  _537
REMARK  223  A    between atoms: _542  and  _544
REMARK  224  A    between atoms: _544  and  _545
REMARK  225  A    between atoms: _544  and  _547
REMARK  226  A    between atoms: _547  and  _548
REMARK  227  A    between atoms: _558  and  _560
REMARK  228  A    between atoms: _560  and  _561
REMARK  229  A    between atoms: _560  and  _563
REMARK  230  A    between atoms: _566  and  _568
REMARK  231  A    between atoms: _568  and  _569
REMARK  232  A    between atoms: _568  and  _571
REMARK  233  A    between atoms: _571  and  _572
REMARK  234  A    between atoms: _575  and  _577
REMARK  235  A    between atoms: _577  and  _578
REMARK  236  A    between atoms: _577  and  _580
REMARK  237  A    between atoms: _580  and  _581
REMARK  238  A    between atoms: _581  and  _582
REMARK  239  A    between atoms: _584  and  _586
REMARK  240  A    between atoms: _586  and  _587
REMARK  241  A    between atoms: _586  and  _589
REMARK  242  A    between atoms: _589  and  _590
REMARK  243  A    between atoms: _593  and  _595
REMARK  244  A    between atoms: _595  and  _596
REMARK  245  A    between atoms: _595  and  _598
REMARK  246  A    between atoms: _598  and  _599
REMARK  247  A    between atoms: _602  and  _604
REMARK  248  A    between atoms: _604  and  _605
REMARK  249  A    between atoms: _607  and  _609
REMARK  250  A    between atoms: _609  and  _610
REMARK  251  A    between atoms: _609  and  _612
REMARK  252  A    between atoms: _612  and  _613
REMARK  253  A    between atoms: _615  and  _617
REMARK  254  A    between atoms: _617  and  _618
REMARK  255  A    between atoms: _617  and  _620
REMARK  256  A    between atoms: _620  and  _621
REMARK  257  A    between atoms: _631  and  _633
REMARK  258  A    between atoms: _633  and  _634
REMARK  259  A    between atoms: _633  and  _636
REMARK  260  A    between atoms: _636  and  _637
REMARK  261  A    between atoms: _639  and  _641
REMARK  262  A    between atoms: _641  and  _642
REMARK  263  A    between atoms: _641  and  _644
REMARK  264  A    between atoms: _644  and  _645
REMARK  265  A    between atoms: _648  and  _650
REMARK  266  A    between atoms: _650  and  _651
REMARK  267  A    between atoms: _654  and  _656
REMARK  268  A    between atoms: _656  and  _657
REMARK  269  A    between atoms: _656  and  _659
REMARK  270  A    between atoms: _659  and  _660
REMARK  271  A    between atoms: _662  and  _664
REMARK  272  A    between atoms: _664  and  _665
REMARK  273  A    between atoms: _664  and  _667
REMARK  274  A    between atoms: _667  and  _668
REMARK  275  A    between atoms: _668  and  _669
REMARK  276  A    between atoms: _673  and  _674
REMARK  277  A    between atoms: _679  and  _681
REMARK  278  A    between atoms: _681  and  _682
REMARK  279  A    between atoms: _681  and  _684
REMARK  280  A    between atoms: _684  and  _685
REMARK  281  A    between atoms: _687  and  _689
REMARK  282  A    between atoms: _689  and  _690
REMARK  283  A    between atoms: _689  and  _692
REMARK  284  A    between atoms: _692  and  _693
REMARK  285  A    between atoms: _693  and  _694
REMARK  286  A    between atoms: _699  and  _701
REMARK  287  A    between atoms: _701  and  _702
REMARK  288  A    between atoms: _701  and  _704
REMARK  289  A    between atoms: _704  and  _705
REMARK  290  A    between atoms: _705  and  _706
REMARK  291  A    between atoms: _711  and  _713
REMARK  292  A    between atoms: _713  and  _714
REMARK  293  A    between atoms: _713  and  _716
REMARK  294  A    between atoms: _716  and  _717
REMARK  295  A    between atoms: _720  and  _722
REMARK  296  A    between atoms: _722  and  _723
REMARK  297  A    between atoms: _722  and  _725
REMARK  298  A    between atoms: _725  and  _726
REMARK  299  A    between atoms: _729  and  _731
REMARK  300  A    between atoms: _731  and  _732
REMARK  301  A    between atoms: _731  and  _734
REMARK  302  A    between atoms: _734  and  _735
REMARK  303  A    between atoms: _741  and  _743
REMARK  304  A    between atoms: _743  and  _744
REMARK  305  A    between atoms: _743  and  _746
REMARK  306  A    between atoms: _746  and  _747
REMARK  307  A    between atoms: _752  and  _753
REMARK  308  A    between atoms: _755  and  _757
REMARK  309  A    between atoms: _757  and  _758
REMARK  310  A    between atoms: _757  and  _760
REMARK  311  A    between atoms: _760  and  _761
REMARK  312  A    between atoms: _767  and  _769
REMARK  313  A    between atoms: _769  and  _770
REMARK  314  A    between atoms: _769  and  _772
REMARK  315  A    between atoms: _772  and  _773
REMARK  316  A    between atoms: _778  and  _780
REMARK  317  A    between atoms: _780  and  _781
REMARK  318  A    between atoms: _780  and  _783
REMARK  319  A    between atoms: _783  and  _784
REMARK  320  A    between atoms: _784  and  _785
REMARK                            x       y       z     vdW  Elec       q    Type
REMARK                         _______ _______ _______ _____ _____    ______ ____
ROOT
ATOM      1  O   HOH     1      -6.549  46.602  27.162  0.00  0.00    +0.000 OA
ENDROOT
TORSDOF 0
REMARK  Name = ../refined-set-2016/3drf/3drf_pocket.pdb
REMARK  320 active torsions:
REMARK  status: ('A' for Active; 'I' for Inactive)
REMARK    1  A    between atoms: _1  and  _3
REMARK    2  A    between atoms: _3  and  _4
REMARK    3  A    between atoms: _3  and  _6
REMARK    4  A    between atoms: _6  and  _7
REMARK    5  A    between atoms: _12  and  _13
REMARK    6  A    between atoms: _15  and  _17
REMARK    7  A    between atoms: _17  and  _18
REMARK    8  A    between atoms: _17  and  _20
REMARK    9  A    between atoms: _20  and  _21
REMARK   10  A    between atoms: _21  and  _22
REMARK   11  A    between atoms: _27  and  _29
REMARK   12  A    between atoms: _29  and  _30
REMARK   13  A    between atoms: _29  and  _32
REMARK   14  A    between atoms: _32  and  _33
REMARK   15  A    between atoms: _35  and  _37
REMARK   16  A    between atoms: _37  and  _38
REMARK   17  A    between atoms: _37  and  _40
REMARK   18  A    between atoms: _40  and  _41
REMARK   19  A    between atoms: _44  and  _46
REMARK   20  A    between atoms: _46  and  _47
REMARK   21  A    between atoms: _46  and  _49
REMARK   22  A    between atoms: _49  and  _50
REMARK   23  A    between atoms: _52  and  _54
REMARK   24  A    between atoms: _54  and  _55
REMARK   25  A    between atoms: _54  and  _57
REMARK   26  A    between atoms: _57  and  _58
REMARK   27  A    between atoms: _60  and  _62
REMARK   28  A    between atoms: _62  and  _63
REMARK   29  A    between atoms: _65  and  _67
REMARK   30  A    between atoms: _67  and  _68
REMARK   31  A    between atoms: _67  and  _70
REMARK   32  A    between atoms: _70  and  _71
REMARK   33  A    between atoms: _73  and  _75
REMARK   34  A    between atoms: _75  and  _76
REMARK   35  A    between atoms: _75  and  _78
REMARK   36  A    between atoms: _78  and  _79
REMARK   37  A    between atoms: _84  and  _86
REMARK   38  A    between atoms: _86  and  _87
REMARK   39  A    between atoms: _86  and  _89
REMARK   40  A    between atoms: _89  and  _90
REMARK   41  A    between atoms: _93  and  _95
REMARK   42  A    between atoms: _95  and  _96
REMARK   43  A    between atoms: _99  and  _101
REMARK   44  A    between atoms: _101  and  _102
REMARK   45  A    between atoms: _101  and  _104
REMARK   46  A    between atoms: _104  and  _105
REMARK   47  A    between atoms: _108  and  _110
REMARK   48  A    between atoms: _110  and  _111
REMARK   49  A    between atoms: _110  and  _113
REMARK   50  A    between atoms: _113  and  _114
REMARK   51  A    between atoms: _120  and  _122
REMARK   52  A    between atoms: _122  and  _123
REMARK   53  A    between atoms: _126  and  _128
REMARK   54  A    between atoms: _128  and  _129
REMARK   55  A    between atoms: _128  and  _131
REMARK   56  A    between atoms: _131  and  _132
REMARK   57  A    between atoms: _135  and  _137
REMARK   58  A    between atoms: _137  and  _138
REMARK   59  A    between atoms: _140  and  _142
REMARK   60  A    between atoms: _142  and  _143
REMARK   61  A    between atoms: _142  and  _145
REMARK   62  A    between atoms: _145  and  _146
REMARK   63  A    between atoms: _146  and  _147
REMARK   64  A    between atoms: _152  and  _154
REMARK   65  A    between atoms: _154  and  _155
REMARK   66  A    between atoms: _157  and  _159
REMARK   67  A    between atoms: _159  and  _160
REMARK   68  A    between atoms: _159  and  _162
REMARK   69  A    between atoms: _162  and  _163
REMARK   70  A    between atoms: _166  and  _168
REMARK   71  A    between atoms: _168  and  _169
REMARK   72  A    between atoms: _168  and  _171
REMARK   73  A    between atoms: _171  and  _172
REMARK   74  A    between atoms: _178  and  _180
REMARK   75  A    between atoms: _180  and  _181
REMARK   76  A    between atoms: _180  and  _183
REMARK   77  A    between atoms: _183  and  _184
REMARK   78  A    between atoms: _187  and  _189
REMARK   79  A    between atoms: _189  and  _190
REMARK   80  A    between atoms: _189  and  _192
REMARK   81  A    between atoms: _192  and  _193
REMARK   82  A    between atoms: _199  and  _201
REMARK   83  A    between atoms: _201  and  _202
REMARK   84  A    between atoms: _201  and  _204
REMARK   85  A    between atoms: _204  and  _205
REMARK   86  A    between atoms: _211  and  _213
REMARK   87  A    between atoms: _213  and  _214
REMARK   88  A    between atoms: _213  and  _216
REMARK   89  A    between atoms: _216  and  _217
REMARK   90  A    between atoms: _220  and  _222
REMARK   91  A    between atoms: _222  and  _223
REMARK   92  A    between atoms: _222  and  _225
REMARK   93  A    between atoms: _225  and  _226
REMARK   94  A    between atoms: _229  and  _231
REMARK   95  A    between atoms: _231  and  _232
REMARK   96  A    between atoms: _231  and  _234
REMARK   97  A    between atoms: _234  and  _235
REMARK   98  A    between atoms: _235  and  _236
REMARK   99  A    between atoms: _236  and  _237
REMARK  100  A    between atoms: _246  and  _248
REMARK  101  A    between atoms: _248  and  _249
REMARK  102  A    between atoms: _248  and  _251
REMARK  103  A    between atoms: _251  and  _252
REMARK  104  A    between atoms: _255  and  _257
REMARK  105  A    between atoms: _257  and  _258
REMARK  106  A    between atoms: _257  and  _260
REMARK  107  A    between atoms: _260  and  _261
REMARK  108  A    between atoms: _263  and  _265
REMARK  109  A    between atoms: _265  and  _266
REMARK  110  A    between atoms: _265  and  _268
REMARK  111  A    between atoms: _268  and  _269
REMARK  112  A    between atoms: _269  and  _270
REMARK  113  A    between atoms: _275  and  _277
REMARK  114  A    between atoms: _277  and  _278
REMARK  115  A    between atoms: _277  and  _280
REMARK  116  A    between atoms: _280  and  _281
REMARK  117  A    between atoms: _283  and  _285
REMARK  118  A    between atoms: _285  and  _286
REMARK  119  A    between atoms: _288  and  _290
REMARK  120  A    between atoms: _290  and  _291
REMARK  121  A    between atoms: _290  and  _293
REMARK  122  A    between atoms: _293  and  _294
REMARK  123  A    between atoms: _299  and  _301
REMARK  124  A    between atoms: _301  and  _302
REMARK  125  A    between atoms: _304  and  _306
REMARK  126  A    between atoms: _306  and  _307
REMARK  127  A    between atoms: _306  and  _309
REMARK  128  A    between atoms: _309  and  _310
REMARK  129  A    between atoms: _315  and  _316
REMARK  130  A    between atoms: _318  and  _320
REMARK  131  A    between atoms: _320  and  _321
REMARK  132  A    between atoms: _320  and  _323
REMARK  133  A    between atoms: _323  and  _324
REMARK  134  A    between atoms: _330  and  _332
REMARK  135  A    between atoms: _332  and  _333
REMARK  136  A    between atoms: _332  and  _335
REMARK  137  A    between atoms: _335  and  _336
REMARK  138  A    between atoms: _339  and  _341
REMARK  139  A    between atoms: _341  and  _342
REMARK  140  A    between atoms: _341  and  _344
REMARK  141  A    between atoms: _344  and  _345
REMARK  142  A    between atoms: _345  and  _346
REMARK  143  A    between atoms: _349  and  _351
REMARK  144  A    between atoms: _351  and  _352
REMARK  145  A    between atoms: _351  and  _354
REMARK  146  A    between atoms: _354  and  _355
REMARK  147  A    between atoms: _358  and  _360
REMARK  148  A    between atoms: _360  and  _361
REMARK  149  A    between atoms: _360  and  _363
REMARK  150  A    between atoms: _363  and  _364
REMARK  151  A    between atoms: _367  and  _369
REMARK  152  A    between atoms: _369  and  _370
REMARK  153  A    between atoms: _372  and  _374
REMARK  154  A    between atoms: _374  and  _375
REMARK  155  A    between atoms: _374  and  _377
REMARK  156  A    between atoms: _380  and  _382
REMARK  157  A    between atoms: _382  and  _383
REMARK  158  A    between atoms: _382  and  _385
REMARK  159  A    between atoms: _385  and  _386
REMARK  160  A    between atoms: _388  and  _390
REMARK  161  A    between atoms: _390  and  _391
REMARK  162  A    between atoms: _390  and  _393
REMARK  163  A    between atoms: _393  and  _394
REMARK  164  A    between atoms: _394  and  _395
REMARK  165  A    between atoms: _397  and  _399
REMARK  166  A    between atoms: _399  and  _400
REMARK  167  A    between atoms: _399  and  _402
REMARK  168  A    between atoms: _402  and  _403
REMARK  169  A    between atoms: _408  and  _409
REMARK  170  A    between atoms: _411  and  _413
REMARK  171  A    between atoms: _413  and  _414
REMARK  172  A    between atoms: _413  and  _416
REMARK  173  A    between atoms: _416  and  _417
REMARK  174  A    between atoms: _420  and  _422
REMARK  175  A    between atoms: _422  and  _423
REMARK  176  A    between atoms: _422  and  _425
REMARK  177  A    between atoms: _425  and  _426
REMARK  178  A    between atoms: _428  and  _430
REMARK  179  A    between atoms: _430  and  _431
REMARK  180  A    between atoms: _430  and  _433
REMARK  181  A    between atoms: _433  and  _434
REMARK  182  A    between atoms: _437  and  _439
REMARK  183  A    between atoms: _439  and  _440
REMARK  184  A    between atoms: _439  and  _442
REMARK  185  A    between atoms: _442  and  _443
REMARK  186  A    between atoms: _448  and  _449
REMARK  187  A    between atoms: _451  and  _453
REMARK  188  A    between atoms: _453  and  _454
REMARK  189  A    between atoms: _453  and  _456
REMARK  190  A    between atoms: _456  and  _457
REMARK  191  A    between atoms: _459  and  _461
REMARK  192  A    between atoms: _461  and  _462
REMARK  193  A    between atoms: _461  and  _464
REMARK  194  A    between atoms: _464  and  _465
REMARK  195  A    between atoms: _471  and  _473
REMARK  196  A    between atoms: _473  and  _474
REMARK  197  A    between atoms: _473  and  _476
REMARK  198  A    between atoms: _476  and  _477
REMARK  199  A    between atoms: _477  and  _478
REMARK  200  A    between atoms: _478  and  _479
REMARK  201  A    between atoms: _488  and  _490
REMARK  202  A    between atoms: _490  and  _491
REMARK  203  A    between atoms: _490  and  _493
REMARK  204  A    between atoms: _496  and  _498
REMARK  205  A    between atoms: _498  and  _499
REMARK  206  A    between atoms: _501  and  _503
REMARK  207  A    between atoms: _503  and  _504
REMARK  208  A    between atoms: _503  and  _506
REMARK  209  A    between atoms: _506  and  _507
REMARK  210  A    between atoms: _510  and  _512
REMARK  211  A    between atoms: _512  and  _513
REMARK  212  A    between atoms: _512  and  _515
REMARK  213  A    between atoms: _515  and  _516
REMARK  214  A    between atoms: _516  and  _517
REMARK  215  A    between atoms: _519  and  _521
REMARK  216  A    between atoms: _521  and  _522
REMARK  217  A    between atoms: _521  and  _524
REMARK  218  A    between atoms: _524  and  _525
REMARK  219  A    between atoms: _531  and  _533
REMARK  220  A    between atoms: _533  and  _534
REMARK  221  A    between atoms: _533  and  _536
REMARK  222  A    between atoms: _536  and  _537
REMARK  223  A    between atoms: _542  and  _544
REMARK  224  A    between atoms: _544  and  _545
REMARK  225  A    between atoms: _544  and  _547
REMARK  226  A    between atoms: _547  and  _548
REMARK  227  A    between atoms: _558  and  _560
REMARK  228  A    between atoms: _560  and  _561
REMARK  229  A    between atoms: _560  and  _563
REMARK  230  A    between atoms: _566  and  _568
REMARK  231  A    between atoms: _568  and  _569
REMARK  232  A    between atoms: _568  and  _571
REMARK  233  A    between atoms: _571  and  _572
REMARK  234  A    between atoms: _575  and  _577
REMARK  235  A    between atoms: _577  and  _578
REMARK  236  A    between atoms: _577  and  _580
REMARK  237  A    between atoms: _580  and  _581
REMARK  238  A    between atoms: _581  and  _582
REMARK  239  A    between atoms: _584  and  _586
REMARK  240  A    between atoms: _586  and  _587
REMARK  241  A    between atoms: _586  and  _589
REMARK  242  A    between atoms: _589  and  _590
REMARK  243  A    between atoms: _593  and  _595
REMARK  244  A    between atoms: _595  and  _596
REMARK  245  A    between atoms: _595  and  _598
REMARK  246  A    between atoms: _598  and  _599
REMARK  247  A    between atoms: _602  and  _604
REMARK  248  A    between atoms: _604  and  _605
REMARK  249  A    between atoms: _607  and  _609
REMARK  250  A    between atoms: _609  and  _610
REMARK  251  A    between atoms: _609  and  _612
REMARK  252  A    between atoms: _612  and  _613
REMARK  253  A    between atoms: _615  and  _617
REMARK  254  A    between atoms: _617  and  _618
REMARK  255  A    between atoms: _617  and  _620
REMARK  256  A    between atoms: _620  and  _621
REMARK  257  A    between atoms: _631  and  _633
REMARK  258  A    between atoms: _633  and  _634
REMARK  259  A    between atoms: _633  and  _636
REMARK  260  A    between atoms: _636  and  _637
REMARK  261  A    between atoms: _639  and  _641
REMARK  262  A    between atoms: _641  and  _642
REMARK  263  A    between atoms: _641  and  _644
REMARK  264  A    between atoms: _644  and  _645
REMARK  265  A    between atoms: _648  and  _650
REMARK  266  A    between atoms: _650  and  _651
REMARK  267  A    between atoms: _654  and  _656
REMARK  268  A    between atoms: _656  and  _657
REMARK  269  A    between atoms: _656  and  _659
REMARK  270  A    between atoms: _659  and  _660
REMARK  271  A    between atoms: _662  and  _664
REMARK  272  A    between atoms: _664  and  _665
REMARK  273  A    between atoms: _664  and  _667
REMARK  274  A    between atoms: _667  and  _668
REMARK  275  A    between atoms: _668  and  _669
REMARK  276  A    between atoms: _673  and  _674
REMARK  277  A    between atoms: _679  and  _681
REMARK  278  A    between atoms: _681  and  _682
REMARK  279  A    between atoms: _681  and  _684
REMARK  280  A    between atoms: _684  and  _685
REMARK  281  A    between atoms: _687  and  _689
REMARK  282  A    between atoms: _689  and  _690
REMARK  283  A    between atoms: _689  and  _692
REMARK  284  A    between atoms: _692  and  _693
REMARK  285  A    between atoms: _693  and  _694
REMARK  286  A    between atoms: _699  and  _701
REMARK  287  A    between atoms: _701  and  _702
REMARK  288  A    between atoms: _701  and  _704
REMARK  289  A    between atoms: _704  and  _705
REMARK  290  A    between atoms: _705  and  _706
REMARK  291  A    between atoms: _711  and  _713
REMARK  292  A    between atoms: _713  and  _714
REMARK  293  A    between atoms: _713  and  _716
REMARK  294  A    between atoms: _716  and  _717
REMARK  295  A    between atoms: _720  and  _722
REMARK  296  A    between atoms: _722  and  _723
REMARK  297  A    between atoms: _722  and  _725
REMARK  298  A    between atoms: _725  and  _726
REMARK  299  A    between atoms: _729  and  _731
REMARK  300  A    between atoms: _731  and  _732
REMARK  301  A    between atoms: _731  and  _734
REMARK  302  A    between atoms: _734  and  _735
REMARK  303  A    between atoms: _741  and  _743
REMARK  304  A    between atoms: _743  and  _744
REMARK  305  A    between atoms: _743  and  _746
REMARK  306  A    between atoms: _746  and  _747
REMARK  307  A    between atoms: _752  and  _753
REMARK  308  A    between atoms: _755  and  _757
REMARK  309  A    between atoms: _757  and  _758
REMARK  310  A    between atoms: _757  and  _760
REMARK  311  A    between atoms: _760  and  _761
REMARK  312  A    between atoms: _767  and  _769
REMARK  313  A    between atoms: _769  and  _770
REMARK  314  A    between atoms: _769  and  _772
REMARK  315  A    between atoms: _772  and  _773
REMARK  316  A    between atoms: _778  and  _780
REMARK  317  A    between atoms: _780  and  _781
REMARK  318  A    between atoms: _780  and  _783
REMARK  319  A    between atoms: _783  and  _784
REMARK  320  A    between atoms: _784  and  _785
REMARK                            x       y       z     vdW  Elec       q    Type
REMARK                         _______ _______ _______ _____ _____    ______ ____
ROOT
ATOM      1  O   HOH     1      -3.492  54.857  24.510  0.00  0.00    +0.000 OA
ENDROOT
TORSDOF 0
REMARK  Name = ../refined-set-2016/3drf/3drf_pocket.pdb
REMARK  320 active torsions:
REMARK  status: ('A' for Active; 'I' for Inactive)
REMARK    1  A    between atoms: _1  and  _3
REMARK    2  A    between atoms: _3  and  _4
REMARK    3  A    between atoms: _3  and  _6
REMARK    4  A    between atoms: _6  and  _7
REMARK    5  A    between atoms: _12  and  _13
REMARK    6  A    between atoms: _15  and  _17
REMARK    7  A    between atoms: _17  and  _18
REMARK    8  A    between atoms: _17  and  _20
REMARK    9  A    between atoms: _20  and  _21
REMARK   10  A    between atoms: _21  and  _22
REMARK   11  A    between atoms: _27  and  _29
REMARK   12  A    between atoms: _29  and  _30
REMARK   13  A    between atoms: _29  and  _32
REMARK   14  A    between atoms: _32  and  _33
REMARK   15  A    between atoms: _35  and  _37
REMARK   16  A    between atoms: _37  and  _38
REMARK   17  A    between atoms: _37  and  _40
REMARK   18  A    between atoms: _40  and  _41
REMARK   19  A    between atoms: _44  and  _46
REMARK   20  A    between atoms: _46  and  _47
REMARK   21  A    between atoms: _46  and  _49
REMARK   22  A    between atoms: _49  and  _50
REMARK   23  A    between atoms: _52  and  _54
REMARK   24  A    between atoms: _54  and  _55
REMARK   25  A    between atoms: _54  and  _57
REMARK   26  A    between atoms: _57  and  _58
REMARK   27  A    between atoms: _60  and  _62
REMARK   28  A    between atoms: _62  and  _63
REMARK   29  A    between atoms: _65  and  _67
REMARK   30  A    between atoms: _67  and  _68
REMARK   31  A    between atoms: _67  and  _70
REMARK   32  A    between atoms: _70  and  _71
REMARK   33  A    between atoms: _73  and  _75
REMARK   34  A    between atoms: _75  and  _76
REMARK   35  A    between atoms: _75  and  _78
REMARK   36  A    between atoms: _78  and  _79
REMARK   37  A    between atoms: _84  and  _86
REMARK   38  A    between atoms: _86  and  _87
REMARK   39  A    between atoms: _86  and  _89
REMARK   40  A    between atoms: _89  and  _90
REMARK   41  A    between atoms: _93  and  _95
REMARK   42  A    between atoms: _95  and  _96
REMARK   43  A    between atoms: _99  and  _101
REMARK   44  A    between atoms: _101  and  _102
REMARK   45  A    between atoms: _101  and  _104
REMARK   46  A    between atoms: _104  and  _105
REMARK   47  A    between atoms: _108  and  _110
REMARK   48  A    between atoms: _110  and  _111
REMARK   49  A    between atoms: _110  and  _113
REMARK   50  A    between atoms: _113  and  _114
REMARK   51  A    between atoms: _120  and  _122
REMARK   52  A    between atoms: _122  and  _123
REMARK   53  A    between atoms: _126  and  _128
REMARK   54  A    between atoms: _128  and  _129
REMARK   55  A    between atoms: _128  and  _131
REMARK   56  A    between atoms: _131  and  _132
REMARK   57  A    between atoms: _135  and  _137
REMARK   58  A    between atoms: _137  and  _138
REMARK   59  A    between atoms: _140  and  _142
REMARK   60  A    between atoms: _142  and  _143
REMARK   61  A    between atoms: _142  and  _145
REMARK   62  A    between atoms: _145  and  _146
REMARK   63  A    between atoms: _146  and  _147
REMARK   64  A    between atoms: _152  and  _154
REMARK   65  A    between atoms: _154  and  _155
REMARK   66  A    between atoms: _157  and  _159
REMARK   67  A    between atoms: _159  and  _160
REMARK   68  A    between atoms: _159  and  _162
REMARK   69  A    between atoms: _162  and  _163
REMARK   70  A    between atoms: _166  and  _168
REMARK   71  A    between atoms: _168  and  _169
REMARK   72  A    between atoms: _168  and  _171
REMARK   73  A    between atoms: _171  and  _172
REMARK   74  A    between atoms: _178  and  _180
REMARK   75  A    between atoms: _180  and  _181
REMARK   76  A    between atoms: _180  and  _183
REMARK   77  A    between atoms: _183  and  _184
REMARK   78  A    between atoms: _187  and  _189
REMARK   79  A    between atoms: _189  and  _190
REMARK   80  A    between atoms: _189  and  _192
REMARK   81  A    between atoms: _192  and  _193
REMARK   82  A    between atoms: _199  and  _201
REMARK   83  A    between atoms: _201  and  _202
REMARK   84  A    between atoms: _201  and  _204
REMARK   85  A    between atoms: _204  and  _205
REMARK   86  A    between atoms: _211  and  _213
REMARK   87  A    between atoms: _213  and  _214
REMARK   88  A    between atoms: _213  and  _216
REMARK   89  A    between atoms: _216  and  _217
REMARK   90  A    between atoms: _220  and  _222
REMARK   91  A    between atoms: _222  and  _223
REMARK   92  A    between atoms: _222  and  _225
REMARK   93  A    between atoms: _225  and  _226
REMARK   94  A    between atoms: _229  and  _231
REMARK   95  A    between atoms: _231  and  _232
REMARK   96  A    between atoms: _231  and  _234
REMARK   97  A    between atoms: _234  and  _235
REMARK   98  A    between atoms: _235  and  _236
REMARK   99  A    between atoms: _236  and  _237
REMARK  100  A    between atoms: _246  and  _248
REMARK  101  A    between atoms: _248  and  _249
REMARK  102  A    between atoms: _248  and  _251
REMARK  103  A    between atoms: _251  and  _252
REMARK  104  A    between atoms: _255  and  _257
REMARK  105  A    between atoms: _257  and  _258
REMARK  106  A    between atoms: _257  and  _260
REMARK  107  A    between atoms: _260  and  _261
REMARK  108  A    between atoms: _263  and  _265
REMARK  109  A    between atoms: _265  and  _266
REMARK  110  A    between atoms: _265  and  _268
REMARK  111  A    between atoms: _268  and  _269
REMARK  112  A    between atoms: _269  and  _270
REMARK  113  A    between atoms: _275  and  _277
REMARK  114  A    between atoms: _277  and  _278
REMARK  115  A    between atoms: _277  and  _280
REMARK  116  A    between atoms: _280  and  _281
REMARK  117  A    between atoms: _283  and  _285
REMARK  118  A    between atoms: _285  and  _286
REMARK  119  A    between atoms: _288  and  _290
REMARK  120  A    between atoms: _290  and  _291
REMARK  121  A    between atoms: _290  and  _293
REMARK  122  A    between atoms: _293  and  _294
REMARK  123  A    between atoms: _299  and  _301
REMARK  124  A    between atoms: _301  and  _302
REMARK  125  A    between atoms: _304  and  _306
REMARK  126  A    between atoms: _306  and  _307
REMARK  127  A    between atoms: _306  and  _309
REMARK  128  A    between atoms: _309  and  _310
REMARK  129  A    between atoms: _315  and  _316
REMARK  130  A    between atoms: _318  and  _320
REMARK  131  A    between atoms: _320  and  _321
REMARK  132  A    between atoms: _320  and  _323
REMARK  133  A    between atoms: _323  and  _324
REMARK  134  A    between atoms: _330  and  _332
REMARK  135  A    between atoms: _332  and  _333
REMARK  136  A    between atoms: _332  and  _335
REMARK  137  A    between atoms: _335  and  _336
REMARK  138  A    between atoms: _339  and  _341
REMARK  139  A    between atoms: _341  and  _342
REMARK  140  A    between atoms: _341  and  _344
REMARK  141  A    between atoms: _344  and  _345
REMARK  142  A    between atoms: _345  and  _346
REMARK  143  A    between atoms: _349  and  _351
REMARK  144  A    between atoms: _351  and  _352
REMARK  145  A    between atoms: _351  and  _354
REMARK  146  A    between atoms: _354  and  _355
REMARK  147  A    between atoms: _358  and  _360
REMARK  148  A    between atoms: _360  and  _361
REMARK  149  A    between atoms: _360  and  _363
REMARK  150  A    between atoms: _363  and  _364
REMARK  151  A    between atoms: _367  and  _369
REMARK  152  A    between atoms: _369  and  _370
REMARK  153  A    between atoms: _372  and  _374
REMARK  154  A    between atoms: _374  and  _375
REMARK  155  A    between atoms: _374  and  _377
REMARK  156  A    between atoms: _380  and  _382
REMARK  157  A    between atoms: _382  and  _383
REMARK  158  A    between atoms: _382  and  _385
REMARK  159  A    between atoms: _385  and  _386
REMARK  160  A    between atoms: _388  and  _390
REMARK  161  A    between atoms: _390  and  _391
REMARK  162  A    between atoms: _390  and  _393
REMARK  163  A    between atoms: _393  and  _394
REMARK  164  A    between atoms: _394  and  _395
REMARK  165  A    between atoms: _397  and  _399
REMARK  166  A    between atoms: _399  and  _400
REMARK  167  A    between atoms: _399  and  _402
REMARK  168  A    between atoms: _402  and  _403
REMARK  169  A    between atoms: _408  and  _409
REMARK  170  A    between atoms: _411  and  _413
REMARK  171  A    between atoms: _413  and  _414
REMARK  172  A    between atoms: _413  and  _416
REMARK  173  A    between atoms: _416  and  _417
REMARK  174  A    between atoms: _420  and  _422
REMARK  175  A    between atoms: _422  and  _423
REMARK  176  A    between atoms: _422  and  _425
REMARK  177  A    between atoms: _425  and  _426
REMARK  178  A    between atoms: _428  and  _430
REMARK  179  A    between atoms: _430  and  _431
REMARK  180  A    between atoms: _430  and  _433
REMARK  181  A    between atoms: _433  and  _434
REMARK  182  A    between atoms: _437  and  _439
REMARK  183  A    between atoms: _439  and  _440
REMARK  184  A    between atoms: _439  and  _442
REMARK  185  A    between atoms: _442  and  _443
REMARK  186  A    between atoms: _448  and  _449
REMARK  187  A    between atoms: _451  and  _453
REMARK  188  A    between atoms: _453  and  _454
REMARK  189  A    between atoms: _453  and  _456
REMARK  190  A    between atoms: _456  and  _457
REMARK  191  A    between atoms: _459  and  _461
REMARK  192  A    between atoms: _461  and  _462
REMARK  193  A    between atoms: _461  and  _464
REMARK  194  A    between atoms: _464  and  _465
REMARK  195  A    between atoms: _471  and  _473
REMARK  196  A    between atoms: _473  and  _474
REMARK  197  A    between atoms: _473  and  _476
REMARK  198  A    between atoms: _476  and  _477
REMARK  199  A    between atoms: _477  and  _478
REMARK  200  A    between atoms: _478  and  _479
REMARK  201  A    between atoms: _488  and  _490
REMARK  202  A    between atoms: _490  and  _491
REMARK  203  A    between atoms: _490  and  _493
REMARK  204  A    between atoms: _496  and  _498
REMARK  205  A    between atoms: _498  and  _499
REMARK  206  A    between atoms: _501  and  _503
REMARK  207  A    between atoms: _503  and  _504
REMARK  208  A    between atoms: _503  and  _506
REMARK  209  A    between atoms: _506  and  _507
REMARK  210  A    between atoms: _510  and  _512
REMARK  211  A    between atoms: _512  and  _513
REMARK  212  A    between atoms: _512  and  _515
REMARK  213  A    between atoms: _515  and  _516
REMARK  214  A    between atoms: _516  and  _517
REMARK  215  A    between atoms: _519  and  _521
REMARK  216  A    between atoms: _521  and  _522
REMARK  217  A    between atoms: _521  and  _524
REMARK  218  A    between atoms: _524  and  _525
REMARK  219  A    between atoms: _531  and  _533
REMARK  220  A    between atoms: _533  and  _534
REMARK  221  A    between atoms: _533  and  _536
REMARK  222  A    between atoms: _536  and  _537
REMARK  223  A    between atoms: _542  and  _544
REMARK  224  A    between atoms: _544  and  _545
REMARK  225  A    between atoms: _544  and  _547
REMARK  226  A    between atoms: _547  and  _548
REMARK  227  A    between atoms: _558  and  _560
REMARK  228  A    between atoms: _560  and  _561
REMARK  229  A    between atoms: _560  and  _563
REMARK  230  A    between atoms: _566  and  _568
REMARK  231  A    between atoms: _568  and  _569
REMARK  232  A    between atoms: _568  and  _571
REMARK  233  A    between atoms: _571  and  _572
REMARK  234  A    between atoms: _575  and  _577
REMARK  235  A    between atoms: _577  and  _578
REMARK  236  A    between atoms: _577  and  _580
REMARK  237  A    between atoms: _580  and  _581
REMARK  238  A    between atoms: _581  and  _582
REMARK  239  A    between atoms: _584  and  _586
REMARK  240  A    between atoms: _586  and  _587
REMARK  241  A    between atoms: _586  and  _589
REMARK  242  A    between atoms: _589  and  _590
REMARK  243  A    between atoms: _593  and  _595
REMARK  244  A    between atoms: _595  and  _596
REMARK  245  A    between atoms: _595  and  _598
REMARK  246  A    between atoms: _598  and  _599
REMARK  247  A    between atoms: _602  and  _604
REMARK  248  A    between atoms: _604  and  _605
REMARK  249  A    between atoms: _607  and  _609
REMARK  250  A    between atoms: _609  and  _610
REMARK  251  A    between atoms: _609  and  _612
REMARK  252  A    between atoms: _612  and  _613
REMARK  253  A    between atoms: _615  and  _617
REMARK  254  A    between atoms: _617  and  _618
REMARK  255  A    between atoms: _617  and  _620
REMARK  256  A    between atoms: _620  and  _621
REMARK  257  A    between atoms: _631  and  _633
REMARK  258  A    between atoms: _633  and  _634
REMARK  259  A    between atoms: _633  and  _636
REMARK  260  A    between atoms: _636  and  _637
REMARK  261  A    between atoms: _639  and  _641
REMARK  262  A    between atoms: _641  and  _642
REMARK  263  A    between atoms: _641  and  _644
REMARK  264  A    between atoms: _644  and  _645
REMARK  265  A    between atoms: _648  and  _650
REMARK  266  A    between atoms: _650  and  _651
REMARK  267  A    between atoms: _654  and  _656
REMARK  268  A    between atoms: _656  and  _657
REMARK  269  A    between atoms: _656  and  _659
REMARK  270  A    between atoms: _659  and  _660
REMARK  271  A    between atoms: _662  and  _664
REMARK  272  A    between atoms: _664  and  _665
REMARK  273  A    between atoms: _664  and  _667
REMARK  274  A    between atoms: _667  and  _668
REMARK  275  A    between atoms: _668  and  _669
REMARK  276  A    between atoms: _673  and  _674
REMARK  277  A    between atoms: _679  and  _681
REMARK  278  A    between atoms: _681  and  _682
REMARK  279  A    between atoms: _681  and  _684
REMARK  280  A    between atoms: _684  and  _685
REMARK  281  A    between atoms: _687  and  _689
REMARK  282  A    between atoms: _689  and  _690
REMARK  283  A    between atoms: _689  and  _692
REMARK  284  A    between atoms: _692  and  _693
REMARK  285  A    between atoms: _693  and  _694
REMARK  286  A    between atoms: _699  and  _701
REMARK  287  A    between atoms: _701  and  _702
REMARK  288  A    between atoms: _701  and  _704
REMARK  289  A    between atoms: _704  and  _705
REMARK  290  A    between atoms: _705  and  _706
REMARK  291  A    between atoms: _711  and  _713
REMARK  292  A    between atoms: _713  and  _714
REMARK  293  A    between atoms: _713  and  _716
REMARK  294  A    between atoms: _716  and  _717
REMARK  295  A    between atoms: _720  and  _722
REMARK  296  A    between atoms: _722  and  _723
REMARK  297  A    between atoms: _722  and  _725
REMARK  298  A    between atoms: _725  and  _726
REMARK  299  A    between atoms: _729  and  _731
REMARK  300  A    between atoms: _731  and  _732
REMARK  301  A    between atoms: _731  and  _734
REMARK  302  A    between atoms: _734  and  _735
REMARK  303  A    between atoms: _741  and  _743
REMARK  304  A    between atoms: _743  and  _744
REMARK  305  A    between atoms: _743  and  _746
REMARK  306  A    between atoms: _746  and  _747
REMARK  307  A    between atoms: _752  and  _753
REMARK  308  A    between atoms: _755  and  _757
REMARK  309  A    between atoms: _757  and  _758
REMARK  310  A    between atoms: _757  and  _760
REMARK  311  A    between atoms: _760  and  _761
REMARK  312  A    between atoms: _767  and  _769
REMARK  313  A    between atoms: _769  and  _770
REMARK  314  A    between atoms: _769  and  _772
REMARK  315  A    between atoms: _772  and  _773
REMARK  316  A    between atoms: _778  and  _780
REMARK  317  A    between atoms: _780  and  _781
REMARK  318  A    between atoms: _780  and  _783
REMARK  319  A    between atoms: _783  and  _784
REMARK  320  A    between atoms: _784  and  _785
REMARK                            x       y       z     vdW  Elec       q    Type
REMARK                         _______ _______ _______ _____ _____    ______ ____
ROOT
ATOM      1  O   HOH     1       2.821  56.312  21.251  0.00  0.00    +0.000 OA
ENDROOT
TORSDOF 0
REMARK  Name = ../refined-set-2016/3drf/3drf_pocket.pdb
REMARK  320 active torsions:
REMARK  status: ('A' for Active; 'I' for Inactive)
REMARK    1  A    between atoms: _1  and  _3
REMARK    2  A    between atoms: _3  and  _4
REMARK    3  A    between atoms: _3  and  _6
REMARK    4  A    between atoms: _6  and  _7
REMARK    5  A    between atoms: _12  and  _13
REMARK    6  A    between atoms: _15  and  _17
REMARK    7  A    between atoms: _17  and  _18
REMARK    8  A    between atoms: _17  and  _20
REMARK    9  A    between atoms: _20  and  _21
REMARK   10  A    between atoms: _21  and  _22
REMARK   11  A    between atoms: _27  and  _29
REMARK   12  A    between atoms: _29  and  _30
REMARK   13  A    between atoms: _29  and  _32
REMARK   14  A    between atoms: _32  and  _33
REMARK   15  A    between atoms: _35  and  _37
REMARK   16  A    between atoms: _37  and  _38
REMARK   17  A    between atoms: _37  and  _40
REMARK   18  A    between atoms: _40  and  _41
REMARK   19  A    between atoms: _44  and  _46
REMARK   20  A    between atoms: _46  and  _47
REMARK   21  A    between atoms: _46  and  _49
REMARK   22  A    between atoms: _49  and  _50
REMARK   23  A    between atoms: _52  and  _54
REMARK   24  A    between atoms: _54  and  _55
REMARK   25  A    between atoms: _54  and  _57
REMARK   26  A    between atoms: _57  and  _58
REMARK   27  A    between atoms: _60  and  _62
REMARK   28  A    between atoms: _62  and  _63
REMARK   29  A    between atoms: _65  and  _67
REMARK   30  A    between atoms: _67  and  _68
REMARK   31  A    between atoms: _67  and  _70
REMARK   32  A    between atoms: _70  and  _71
REMARK   33  A    between atoms: _73  and  _75
REMARK   34  A    between atoms: _75  and  _76
REMARK   35  A    between atoms: _75  and  _78
REMARK   36  A    between atoms: _78  and  _79
REMARK   37  A    between atoms: _84  and  _86
REMARK   38  A    between atoms: _86  and  _87
REMARK   39  A    between atoms: _86  and  _89
REMARK   40  A    between atoms: _89  and  _90
REMARK   41  A    between atoms: _93  and  _95
REMARK   42  A    between atoms: _95  and  _96
REMARK   43  A    between atoms: _99  and  _101
REMARK   44  A    between atoms: _101  and  _102
REMARK   45  A    between atoms: _101  and  _104
REMARK   46  A    between atoms: _104  and  _105
REMARK   47  A    between atoms: _108  and  _110
REMARK   48  A    between atoms: _110  and  _111
REMARK   49  A    between atoms: _110  and  _113
REMARK   50  A    between atoms: _113  and  _114
REMARK   51  A    between atoms: _120  and  _122
REMARK   52  A    between atoms: _122  and  _123
REMARK   53  A    between atoms: _126  and  _128
REMARK   54  A    between atoms: _128  and  _129
REMARK   55  A    between atoms: _128  and  _131
REMARK   56  A    between atoms: _131  and  _132
REMARK   57  A    between atoms: _135  and  _137
REMARK   58  A    between atoms: _137  and  _138
REMARK   59  A    between atoms: _140  and  _142
REMARK   60  A    between atoms: _142  and  _143
REMARK   61  A    between atoms: _142  and  _145
REMARK   62  A    between atoms: _145  and  _146
REMARK   63  A    between atoms: _146  and  _147
REMARK   64  A    between atoms: _152  and  _154
REMARK   65  A    between atoms: _154  and  _155
REMARK   66  A    between atoms: _157  and  _159
REMARK   67  A    between atoms: _159  and  _160
REMARK   68  A    between atoms: _159  and  _162
REMARK   69  A    between atoms: _162  and  _163
REMARK   70  A    between atoms: _166  and  _168
REMARK   71  A    between atoms: _168  and  _169
REMARK   72  A    between atoms: _168  and  _171
REMARK   73  A    between atoms: _171  and  _172
REMARK   74  A    between atoms: _178  and  _180
REMARK   75  A    between atoms: _180  and  _181
REMARK   76  A    between atoms: _180  and  _183
REMARK   77  A    between atoms: _183  and  _184
REMARK   78  A    between atoms: _187  and  _189
REMARK   79  A    between atoms: _189  and  _190
REMARK   80  A    between atoms: _189  and  _192
REMARK   81  A    between atoms: _192  and  _193
REMARK   82  A    between atoms: _199  and  _201
REMARK   83  A    between atoms: _201  and  _202
REMARK   84  A    between atoms: _201  and  _204
REMARK   85  A    between atoms: _204  and  _205
REMARK   86  A    between atoms: _211  and  _213
REMARK   87  A    between atoms: _213  and  _214
REMARK   88  A    between atoms: _213  and  _216
REMARK   89  A    between atoms: _216  and  _217
REMARK   90  A    between atoms: _220  and  _222
REMARK   91  A    between atoms: _222  and  _223
REMARK   92  A    between atoms: _222  and  _225
REMARK   93  A    between atoms: _225  and  _226
REMARK   94  A    between atoms: _229  and  _231
REMARK   95  A    between atoms: _231  and  _232
REMARK   96  A    between atoms: _231  and  _234
REMARK   97  A    between atoms: _234  and  _235
REMARK   98  A    between atoms: _235  and  _236
REMARK   99  A    between atoms: _236  and  _237
REMARK  100  A    between atoms: _246  and  _248
REMARK  101  A    between atoms: _248  and  _249
REMARK  102  A    between atoms: _248  and  _251
REMARK  103  A    between atoms: _251  and  _252
REMARK  104  A    between atoms: _255  and  _257
REMARK  105  A    between atoms: _257  and  _258
REMARK  106  A    between atoms: _257  and  _260
REMARK  107  A    between atoms: _260  and  _261
REMARK  108  A    between atoms: _263  and  _265
REMARK  109  A    between atoms: _265  and  _266
REMARK  110  A    between atoms: _265  and  _268
REMARK  111  A    between atoms: _268  and  _269
REMARK  112  A    between atoms: _269  and  _270
REMARK  113  A    between atoms: _275  and  _277
REMARK  114  A    between atoms: _277  and  _278
REMARK  115  A    between atoms: _277  and  _280
REMARK  116  A    between atoms: _280  and  _281
REMARK  117  A    between atoms: _283  and  _285
REMARK  118  A    between atoms: _285  and  _286
REMARK  119  A    between atoms: _288  and  _290
REMARK  120  A    between atoms: _290  and  _291
REMARK  121  A    between atoms: _290  and  _293
REMARK  122  A    between atoms: _293  and  _294
REMARK  123  A    between atoms: _299  and  _301
REMARK  124  A    between atoms: _301  and  _302
REMARK  125  A    between atoms: _304  and  _306
REMARK  126  A    between atoms: _306  and  _307
REMARK  127  A    between atoms: _306  and  _309
REMARK  128  A    between atoms: _309  and  _310
REMARK  129  A    between atoms: _315  and  _316
REMARK  130  A    between atoms: _318  and  _320
REMARK  131  A    between atoms: _320  and  _321
REMARK  132  A    between atoms: _320  and  _323
REMARK  133  A    between atoms: _323  and  _324
REMARK  134  A    between atoms: _330  and  _332
REMARK  135  A    between atoms: _332  and  _333
REMARK  136  A    between atoms: _332  and  _335
REMARK  137  A    between atoms: _335  and  _336
REMARK  138  A    between atoms: _339  and  _341
REMARK  139  A    between atoms: _341  and  _342
REMARK  140  A    between atoms: _341  and  _344
REMARK  141  A    between atoms: _344  and  _345
REMARK  142  A    between atoms: _345  and  _346
REMARK  143  A    between atoms: _349  and  _351
REMARK  144  A    between atoms: _351  and  _352
REMARK  145  A    between atoms: _351  and  _354
REMARK  146  A    between atoms: _354  and  _355
REMARK  147  A    between atoms: _358  and  _360
REMARK  148  A    between atoms: _360  and  _361
REMARK  149  A    between atoms: _360  and  _363
REMARK  150  A    between atoms: _363  and  _364
REMARK  151  A    between atoms: _367  and  _369
REMARK  152  A    between atoms: _369  and  _370
REMARK  153  A    between atoms: _372  and  _374
REMARK  154  A    between atoms: _374  and  _375
REMARK  155  A    between atoms: _374  and  _377
REMARK  156  A    between atoms: _380  and  _382
REMARK  157  A    between atoms: _382  and  _383
REMARK  158  A    between atoms: _382  and  _385
REMARK  159  A    between atoms: _385  and  _386
REMARK  160  A    between atoms: _388  and  _390
REMARK  161  A    between atoms: _390  and  _391
REMARK  162  A    between atoms: _390  and  _393
REMARK  163  A    between atoms: _393  and  _394
REMARK  164  A    between atoms: _394  and  _395
REMARK  165  A    between atoms: _397  and  _399
REMARK  166  A    between atoms: _399  and  _400
REMARK  167  A    between atoms: _399  and  _402
REMARK  168  A    between atoms: _402  and  _403
REMARK  169  A    between atoms: _408  and  _409
REMARK  170  A    between atoms: _411  and  _413
REMARK  171  A    between atoms: _413  and  _414
REMARK  172  A    between atoms: _413  and  _416
REMARK  173  A    between atoms: _416  and  _417
REMARK  174  A    between atoms: _420  and  _422
REMARK  175  A    between atoms: _422  and  _423
REMARK  176  A    between atoms: _422  and  _425
REMARK  177  A    between atoms: _425  and  _426
REMARK  178  A    between atoms: _428  and  _430
REMARK  179  A    between atoms: _430  and  _431
REMARK  180  A    between atoms: _430  and  _433
REMARK  181  A    between atoms: _433  and  _434
REMARK  182  A    between atoms: _437  and  _439
REMARK  183  A    between atoms: _439  and  _440
REMARK  184  A    between atoms: _439  and  _442
REMARK  185  A    between atoms: _442  and  _443
REMARK  186  A    between atoms: _448  and  _449
REMARK  187  A    between atoms: _451  and  _453
REMARK  188  A    between atoms: _453  and  _454
REMARK  189  A    between atoms: _453  and  _456
REMARK  190  A    between atoms: _456  and  _457
REMARK  191  A    between atoms: _459  and  _461
REMARK  192  A    between atoms: _461  and  _462
REMARK  193  A    between atoms: _461  and  _464
REMARK  194  A    between atoms: _464  and  _465
REMARK  195  A    between atoms: _471  and  _473
REMARK  196  A    between atoms: _473  and  _474
REMARK  197  A    between atoms: _473  and  _476
REMARK  198  A    between atoms: _476  and  _477
REMARK  199  A    between atoms: _477  and  _478
REMARK  200  A    between atoms: _478  and  _479
REMARK  201  A    between atoms: _488  and  _490
REMARK  202  A    between atoms: _490  and  _491
REMARK  203  A    between atoms: _490  and  _493
REMARK  204  A    between atoms: _496  and  _498
REMARK  205  A    between atoms: _498  and  _499
REMARK  206  A    between atoms: _501  and  _503
REMARK  207  A    between atoms: _503  and  _504
REMARK  208  A    between atoms: _503  and  _506
REMARK  209  A    between atoms: _506  and  _507
REMARK  210  A    between atoms: _510  and  _512
REMARK  211  A    between atoms: _512  and  _513
REMARK  212  A    between atoms: _512  and  _515
REMARK  213  A    between atoms: _515  and  _516
REMARK  214  A    between atoms: _516  and  _517
REMARK  215  A    between atoms: _519  and  _521
REMARK  216  A    between atoms: _521  and  _522
REMARK  217  A    between atoms: _521  and  _524
REMARK  218  A    between atoms: _524  and  _525
REMARK  219  A    between atoms: _531  and  _533
REMARK  220  A    between atoms: _533  and  _534
REMARK  221  A    between atoms: _533  and  _536
REMARK  222  A    between atoms: _536  and  _537
REMARK  223  A    between atoms: _542  and  _544
REMARK  224  A    between atoms: _544  and  _545
REMARK  225  A    between atoms: _544  and  _547
REMARK  226  A    between atoms: _547  and  _548
REMARK  227  A    between atoms: _558  and  _560
REMARK  228  A    between atoms: _560  and  _561
REMARK  229  A    between atoms: _560  and  _563
REMARK  230  A    between atoms: _566  and  _568
REMARK  231  A    between atoms: _568  and  _569
REMARK  232  A    between atoms: _568  and  _571
REMARK  233  A    between atoms: _571  and  _572
REMARK  234  A    between atoms: _575  and  _577
REMARK  235  A    between atoms: _577  and  _578
REMARK  236  A    between atoms: _577  and  _580
REMARK  237  A    between atoms: _580  and  _581
REMARK  238  A    between atoms: _581  and  _582
REMARK  239  A    between atoms: _584  and  _586
REMARK  240  A    between atoms: _586  and  _587
REMARK  241  A    between atoms: _586  and  _589
REMARK  242  A    between atoms: _589  and  _590
REMARK  243  A    between atoms: _593  and  _595
REMARK  244  A    between atoms: _595  and  _596
REMARK  245  A    between atoms: _595  and  _598
REMARK  246  A    between atoms: _598  and  _599
REMARK  247  A    between atoms: _602  and  _604
REMARK  248  A    between atoms: _604  and  _605
REMARK  249  A    between atoms: _607  and  _609
REMARK  250  A    between atoms: _609  and  _610
REMARK  251  A    between atoms: _609  and  _612
REMARK  252  A    between atoms: _612  and  _613
REMARK  253  A    between atoms: _615  and  _617
REMARK  254  A    between atoms: _617  and  _618
REMARK  255  A    between atoms: _617  and  _620
REMARK  256  A    between atoms: _620  and  _621
REMARK  257  A    between atoms: _631  and  _633
REMARK  258  A    between atoms: _633  and  _634
REMARK  259  A    between atoms: _633  and  _636
REMARK  260  A    between atoms: _636  and  _637
REMARK  261  A    between atoms: _639  and  _641
REMARK  262  A    between atoms: _641  and  _642
REMARK  263  A    between atoms: _641  and  _644
REMARK  264  A    between atoms: _644  and  _645
REMARK  265  A    between atoms: _648  and  _650
REMARK  266  A    between atoms: _650  and  _651
REMARK  267  A    between atoms: _654  and  _656
REMARK  268  A    between atoms: _656  and  _657
REMARK  269  A    between atoms: _656  and  _659
REMARK  270  A    between atoms: _659  and  _660
REMARK  271  A    between atoms: _662  and  _664
REMARK  272  A    between atoms: _664  and  _665
REMARK  273  A    between atoms: _664  and  _667
REMARK  274  A    between atoms: _667  and  _668
REMARK  275  A    between atoms: _668  and  _669
REMARK  276  A    between atoms: _673  and  _674
REMARK  277  A    between atoms: _679  and  _681
REMARK  278  A    between atoms: _681  and  _682
REMARK  279  A    between atoms: _681  and  _684
REMARK  280  A    between atoms: _684  and  _685
REMARK  281  A    between atoms: _687  and  _689
REMARK  282  A    between atoms: _689  and  _690
REMARK  283  A    between atoms: _689  and  _692
REMARK  284  A    between atoms: _692  and  _693
REMARK  285  A    between atoms: _693  and  _694
REMARK  286  A    between atoms: _699  and  _701
REMARK  287  A    between atoms: _701  and  _702
REMARK  288  A    between atoms: _701  and  _704
REMARK  289  A    between atoms: _704  and  _705
REMARK  290  A    between atoms: _705  and  _706
REMARK  291  A    between atoms: _711  and  _713
REMARK  292  A    between atoms: _713  and  _714
REMARK  293  A    between atoms: _713  and  _716
REMARK  294  A    between atoms: _716  and  _717
REMARK  295  A    between atoms: _720  and  _722
REMARK  296  A    between atoms: _722  and  _723
REMARK  297  A    between atoms: _722  and  _725
REMARK  298  A    between atoms: _725  and  _726
REMARK  299  A    between atoms: _729  and  _731
REMARK  300  A    between atoms: _731  and  _732
REMARK  301  A    between atoms: _731  and  _734
REMARK  302  A    between atoms: _734  and  _735
REMARK  303  A    between atoms: _741  and  _743
REMARK  304  A    between atoms: _743  and  _744
REMARK  305  A    between atoms: _743  and  _746
REMARK  306  A    between atoms: _746  and  _747
REMARK  307  A    between atoms: _752  and  _753
REMARK  308  A    between atoms: _755  and  _757
REMARK  309  A    between atoms: _757  and  _758
REMARK  310  A    between atoms: _757  and  _760
REMARK  311  A    between atoms: _760  and  _761
REMARK  312  A    between atoms: _767  and  _769
REMARK  313  A    between atoms: _769  and  _770
REMARK  314  A    between atoms: _769  and  _772
REMARK  315  A    between atoms: _772  and  _773
REMARK  316  A    between atoms: _778  and  _780
REMARK  317  A    between atoms: _780  and  _781
REMARK  318  A    between atoms: _780  and  _783
REMARK  319  A    between atoms: _783  and  _784
REMARK  320  A    between atoms: _784  and  _785
REMARK                            x       y       z     vdW  Elec       q    Type
REMARK                         _______ _______ _______ _____ _____    ______ ____
ROOT
ATOM      1  O   HOH     1       7.850  62.846  24.691  0.00  0.00    +0.000 OA
ENDROOT
TORSDOF 0
REMARK  Name = ../refined-set-2016/3drf/3drf_pocket.pdb
REMARK  320 active torsions:
REMARK  status: ('A' for Active; 'I' for Inactive)
REMARK    1  A    between atoms: _1  and  _3
REMARK    2  A    between atoms: _3  and  _4
REMARK    3  A    between atoms: _3  and  _6
REMARK    4  A    between atoms: _6  and  _7
REMARK    5  A    between atoms: _12  and  _13
REMARK    6  A    between atoms: _15  and  _17
REMARK    7  A    between atoms: _17  and  _18
REMARK    8  A    between atoms: _17  and  _20
REMARK    9  A    between atoms: _20  and  _21
REMARK   10  A    between atoms: _21  and  _22
REMARK   11  A    between atoms: _27  and  _29
REMARK   12  A    between atoms: _29  and  _30
REMARK   13  A    between atoms: _29  and  _32
REMARK   14  A    between atoms: _32  and  _33
REMARK   15  A    between atoms: _35  and  _37
REMARK   16  A    between atoms: _37  and  _38
REMARK   17  A    between atoms: _37  and  _40
REMARK   18  A    between atoms: _40  and  _41
REMARK   19  A    between atoms: _44  and  _46
REMARK   20  A    between atoms: _46  and  _47
REMARK   21  A    between atoms: _46  and  _49
REMARK   22  A    between atoms: _49  and  _50
REMARK   23  A    between atoms: _52  and  _54
REMARK   24  A    between atoms: _54  and  _55
REMARK   25  A    between atoms: _54  and  _57
REMARK   26  A    between atoms: _57  and  _58
REMARK   27  A    between atoms: _60  and  _62
REMARK   28  A    between atoms: _62  and  _63
REMARK   29  A    between atoms: _65  and  _67
REMARK   30  A    between atoms: _67  and  _68
REMARK   31  A    between atoms: _67  and  _70
REMARK   32  A    between atoms: _70  and  _71
REMARK   33  A    between atoms: _73  and  _75
REMARK   34  A    between atoms: _75  and  _76
REMARK   35  A    between atoms: _75  and  _78
REMARK   36  A    between atoms: _78  and  _79
REMARK   37  A    between atoms: _84  and  _86
REMARK   38  A    between atoms: _86  and  _87
REMARK   39  A    between atoms: _86  and  _89
REMARK   40  A    between atoms: _89  and  _90
REMARK   41  A    between atoms: _93  and  _95
REMARK   42  A    between atoms: _95  and  _96
REMARK   43  A    between atoms: _99  and  _101
REMARK   44  A    between atoms: _101  and  _102
REMARK   45  A    between atoms: _101  and  _104
REMARK   46  A    between atoms: _104  and  _105
REMARK   47  A    between atoms: _108  and  _110
REMARK   48  A    between atoms: _110  and  _111
REMARK   49  A    between atoms: _110  and  _113
REMARK   50  A    between atoms: _113  and  _114
REMARK   51  A    between atoms: _120  and  _122
REMARK   52  A    between atoms: _122  and  _123
REMARK   53  A    between atoms: _126  and  _128
REMARK   54  A    between atoms: _128  and  _129
REMARK   55  A    between atoms: _128  and  _131
REMARK   56  A    between atoms: _131  and  _132
REMARK   57  A    between atoms: _135  and  _137
REMARK   58  A    between atoms: _137  and  _138
REMARK   59  A    between atoms: _140  and  _142
REMARK   60  A    between atoms: _142  and  _143
REMARK   61  A    between atoms: _142  and  _145
REMARK   62  A    between atoms: _145  and  _146
REMARK   63  A    between atoms: _146  and  _147
REMARK   64  A    between atoms: _152  and  _154
REMARK   65  A    between atoms: _154  and  _155
REMARK   66  A    between atoms: _157  and  _159
REMARK   67  A    between atoms: _159  and  _160
REMARK   68  A    between atoms: _159  and  _162
REMARK   69  A    between atoms: _162  and  _163
REMARK   70  A    between atoms: _166  and  _168
REMARK   71  A    between atoms: _168  and  _169
REMARK   72  A    between atoms: _168  and  _171
REMARK   73  A    between atoms: _171  and  _172
REMARK   74  A    between atoms: _178  and  _180
REMARK   75  A    between atoms: _180  and  _181
REMARK   76  A    between atoms: _180  and  _183
REMARK   77  A    between atoms: _183  and  _184
REMARK   78  A    between atoms: _187  and  _189
REMARK   79  A    between atoms: _189  and  _190
REMARK   80  A    between atoms: _189  and  _192
REMARK   81  A    between atoms: _192  and  _193
REMARK   82  A    between atoms: _199  and  _201
REMARK   83  A    between atoms: _201  and  _202
REMARK   84  A    between atoms: _201  and  _204
REMARK   85  A    between atoms: _204  and  _205
REMARK   86  A    between atoms: _211  and  _213
REMARK   87  A    between atoms: _213  and  _214
REMARK   88  A    between atoms: _213  and  _216
REMARK   89  A    between atoms: _216  and  _217
REMARK   90  A    between atoms: _220  and  _222
REMARK   91  A    between atoms: _222  and  _223
REMARK   92  A    between atoms: _222  and  _225
REMARK   93  A    between atoms: _225  and  _226
REMARK   94  A    between atoms: _229  and  _231
REMARK   95  A    between atoms: _231  and  _232
REMARK   96  A    between atoms: _231  and  _234
REMARK   97  A    between atoms: _234  and  _235
REMARK   98  A    between atoms: _235  and  _236
REMARK   99  A    between atoms: _236  and  _237
REMARK  100  A    between atoms: _246  and  _248
REMARK  101  A    between atoms: _248  and  _249
REMARK  102  A    between atoms: _248  and  _251
REMARK  103  A    between atoms: _251  and  _252
REMARK  104  A    between atoms: _255  and  _257
REMARK  105  A    between atoms: _257  and  _258
REMARK  106  A    between atoms: _257  and  _260
REMARK  107  A    between atoms: _260  and  _261
REMARK  108  A    between atoms: _263  and  _265
REMARK  109  A    between atoms: _265  and  _266
REMARK  110  A    between atoms: _265  and  _268
REMARK  111  A    between atoms: _268  and  _269
REMARK  112  A    between atoms: _269  and  _270
REMARK  113  A    between atoms: _275  and  _277
REMARK  114  A    between atoms: _277  and  _278
REMARK  115  A    between atoms: _277  and  _280
REMARK  116  A    between atoms: _280  and  _281
REMARK  117  A    between atoms: _283  and  _285
REMARK  118  A    between atoms: _285  and  _286
REMARK  119  A    between atoms: _288  and  _290
REMARK  120  A    between atoms: _290  and  _291
REMARK  121  A    between atoms: _290  and  _293
REMARK  122  A    between atoms: _293  and  _294
REMARK  123  A    between atoms: _299  and  _301
REMARK  124  A    between atoms: _301  and  _302
REMARK  125  A    between atoms: _304  and  _306
REMARK  126  A    between atoms: _306  and  _307
REMARK  127  A    between atoms: _306  and  _309
REMARK  128  A    between atoms: _309  and  _310
REMARK  129  A    between atoms: _315  and  _316
REMARK  130  A    between atoms: _318  and  _320
REMARK  131  A    between atoms: _320  and  _321
REMARK  132  A    between atoms: _320  and  _323
REMARK  133  A    between atoms: _323  and  _324
REMARK  134  A    between atoms: _330  and  _332
REMARK  135  A    between atoms: _332  and  _333
REMARK  136  A    between atoms: _332  and  _335
REMARK  137  A    between atoms: _335  and  _336
REMARK  138  A    between atoms: _339  and  _341
REMARK  139  A    between atoms: _341  and  _342
REMARK  140  A    between atoms: _341  and  _344
REMARK  141  A    between atoms: _344  and  _345
REMARK  142  A    between atoms: _345  and  _346
REMARK  143  A    between atoms: _349  and  _351
REMARK  144  A    between atoms: _351  and  _352
REMARK  145  A    between atoms: _351  and  _354
REMARK  146  A    between atoms: _354  and  _355
REMARK  147  A    between atoms: _358  and  _360
REMARK  148  A    between atoms: _360  and  _361
REMARK  149  A    between atoms: _360  and  _363
REMARK  150  A    between atoms: _363  and  _364
REMARK  151  A    between atoms: _367  and  _369
REMARK  152  A    between atoms: _369  and  _370
REMARK  153  A    between atoms: _372  and  _374
REMARK  154  A    between atoms: _374  and  _375
REMARK  155  A    between atoms: _374  and  _377
REMARK  156  A    between atoms: _380  and  _382
REMARK  157  A    between atoms: _382  and  _383
REMARK  158  A    between atoms: _382  and  _385
REMARK  159  A    between atoms: _385  and  _386
REMARK  160  A    between atoms: _388  and  _390
REMARK  161  A    between atoms: _390  and  _391
REMARK  162  A    between atoms: _390  and  _393
REMARK  163  A    between atoms: _393  and  _394
REMARK  164  A    between atoms: _394  and  _395
REMARK  165  A    between atoms: _397  and  _399
REMARK  166  A    between atoms: _399  and  _400
REMARK  167  A    between atoms: _399  and  _402
REMARK  168  A    between atoms: _402  and  _403
REMARK  169  A    between atoms: _408  and  _409
REMARK  170  A    between atoms: _411  and  _413
REMARK  171  A    between atoms: _413  and  _414
REMARK  172  A    between atoms: _413  and  _416
REMARK  173  A    between atoms: _416  and  _417
REMARK  174  A    between atoms: _420  and  _422
REMARK  175  A    between atoms: _422  and  _423
REMARK  176  A    between atoms: _422  and  _425
REMARK  177  A    between atoms: _425  and  _426
REMARK  178  A    between atoms: _428  and  _430
REMARK  179  A    between atoms: _430  and  _431
REMARK  180  A    between atoms: _430  and  _433
REMARK  181  A    between atoms: _433  and  _434
REMARK  182  A    between atoms: _437  and  _439
REMARK  183  A    between atoms: _439  and  _440
REMARK  184  A    between atoms: _439  and  _442
REMARK  185  A    between atoms: _442  and  _443
REMARK  186  A    between atoms: _448  and  _449
REMARK  187  A    between atoms: _451  and  _453
REMARK  188  A    between atoms: _453  and  _454
REMARK  189  A    between atoms: _453  and  _456
REMARK  190  A    between atoms: _456  and  _457
REMARK  191  A    between atoms: _459  and  _461
REMARK  192  A    between atoms: _461  and  _462
REMARK  193  A    between atoms: _461  and  _464
REMARK  194  A    between atoms: _464  and  _465
REMARK  195  A    between atoms: _471  and  _473
REMARK  196  A    between atoms: _473  and  _474
REMARK  197  A    between atoms: _473  and  _476
REMARK  198  A    between atoms: _476  and  _477
REMARK  199  A    between atoms: _477  and  _478
REMARK  200  A    between atoms: _478  and  _479
REMARK  201  A    between atoms: _488  and  _490
REMARK  202  A    between atoms: _490  and  _491
REMARK  203  A    between atoms: _490  and  _493
REMARK  204  A    between atoms: _496  and  _498
REMARK  205  A    between atoms: _498  and  _499
REMARK  206  A    between atoms: _501  and  _503
REMARK  207  A    between atoms: _503  and  _504
REMARK  208  A    between atoms: _503  and  _506
REMARK  209  A    between atoms: _506  and  _507
REMARK  210  A    between atoms: _510  and  _512
REMARK  211  A    between atoms: _512  and  _513
REMARK  212  A    between atoms: _512  and  _515
REMARK  213  A    between atoms: _515  and  _516
REMARK  214  A    between atoms: _516  and  _517
REMARK  215  A    between atoms: _519  and  _521
REMARK  216  A    between atoms: _521  and  _522
REMARK  217  A    between atoms: _521  and  _524
REMARK  218  A    between atoms: _524  and  _525
REMARK  219  A    between atoms: _531  and  _533
REMARK  220  A    between atoms: _533  and  _534
REMARK  221  A    between atoms: _533  and  _536
REMARK  222  A    between atoms: _536  and  _537
REMARK  223  A    between atoms: _542  and  _544
REMARK  224  A    between atoms: _544  and  _545
REMARK  225  A    between atoms: _544  and  _547
REMARK  226  A    between atoms: _547  and  _548
REMARK  227  A    between atoms: _558  and  _560
REMARK  228  A    between atoms: _560  and  _561
REMARK  229  A    between atoms: _560  and  _563
REMARK  230  A    between atoms: _566  and  _568
REMARK  231  A    between atoms: _568  and  _569
REMARK  232  A    between atoms: _568  and  _571
REMARK  233  A    between atoms: _571  and  _572
REMARK  234  A    between atoms: _575  and  _577
REMARK  235  A    between atoms: _577  and  _578
REMARK  236  A    between atoms: _577  and  _580
REMARK  237  A    between atoms: _580  and  _581
REMARK  238  A    between atoms: _581  and  _582
REMARK  239  A    between atoms: _584  and  _586
REMARK  240  A    between atoms: _586  and  _587
REMARK  241  A    between atoms: _586  and  _589
REMARK  242  A    between atoms: _589  and  _590
REMARK  243  A    between atoms: _593  and  _595
REMARK  244  A    between atoms: _595  and  _596
REMARK  245  A    between atoms: _595  and  _598
REMARK  246  A    between atoms: _598  and  _599
REMARK  247  A    between atoms: _602  and  _604
REMARK  248  A    between atoms: _604  and  _605
REMARK  249  A    between atoms: _607  and  _609
REMARK  250  A    between atoms: _609  and  _610
REMARK  251  A    between atoms: _609  and  _612
REMARK  252  A    between atoms: _612  and  _613
REMARK  253  A    between atoms: _615  and  _617
REMARK  254  A    between atoms: _617  and  _618
REMARK  255  A    between atoms: _617  and  _620
REMARK  256  A    between atoms: _620  and  _621
REMARK  257  A    between atoms: _631  and  _633
REMARK  258  A    between atoms: _633  and  _634
REMARK  259  A    between atoms: _633  and  _636
REMARK  260  A    between atoms: _636  and  _637
REMARK  261  A    between atoms: _639  and  _641
REMARK  262  A    between atoms: _641  and  _642
REMARK  263  A    between atoms: _641  and  _644
REMARK  264  A    between atoms: _644  and  _645
REMARK  265  A    between atoms: _648  and  _650
REMARK  266  A    between atoms: _650  and  _651
REMARK  267  A    between atoms: _654  and  _656
REMARK  268  A    between atoms: _656  and  _657
REMARK  269  A    between atoms: _656  and  _659
REMARK  270  A    between atoms: _659  and  _660
REMARK  271  A    between atoms: _662  and  _664
REMARK  272  A    between atoms: _664  and  _665
REMARK  273  A    between atoms: _664  and  _667
REMARK  274  A    between atoms: _667  and  _668
REMARK  275  A    between atoms: _668  and  _669
REMARK  276  A    between atoms: _673  and  _674
REMARK  277  A    between atoms: _679  and  _681
REMARK  278  A    between atoms: _681  and  _682
REMARK  279  A    between atoms: _681  and  _684
REMARK  280  A    between atoms: _684  and  _685
REMARK  281  A    between atoms: _687  and  _689
REMARK  282  A    between atoms: _689  and  _690
REMARK  283  A    between atoms: _689  and  _692
REMARK  284  A    between atoms: _692  and  _693
REMARK  285  A    between atoms: _693  and  _694
REMARK  286  A    between atoms: _699  and  _701
REMARK  287  A    between atoms: _701  and  _702
REMARK  288  A    between atoms: _701  and  _704
REMARK  289  A    between atoms: _704  and  _705
REMARK  290  A    between atoms: _705  and  _706
REMARK  291  A    between atoms: _711  and  _713
REMARK  292  A    between atoms: _713  and  _714
REMARK  293  A    between atoms: _713  and  _716
REMARK  294  A    between atoms: _716  and  _717
REMARK  295  A    between atoms: _720  and  _722
REMARK  296  A    between atoms: _722  and  _723
REMARK  297  A    between atoms: _722  and  _725
REMARK  298  A    between atoms: _725  and  _726
REMARK  299  A    between atoms: _729  and  _731
REMARK  300  A    between atoms: _731  and  _732
REMARK  301  A    between atoms: _731  and  _734
REMARK  302  A    between atoms: _734  and  _735
REMARK  303  A    between atoms: _741  and  _743
REMARK  304  A    between atoms: _743  and  _744
REMARK  305  A    between atoms: _743  and  _746
REMARK  306  A    between atoms: _746  and  _747
REMARK  307  A    between atoms: _752  and  _753
REMARK  308  A    between atoms: _755  and  _757
REMARK  309  A    between atoms: _757  and  _758
REMARK  310  A    between atoms: _757  and  _760
REMARK  311  A    between atoms: _760  and  _761
REMARK  312  A    between atoms: _767  and  _769
REMARK  313  A    between atoms: _769  and  _770
REMARK  314  A    between atoms: _769  and  _772
REMARK  315  A    between atoms: _772  and  _773
REMARK  316  A    between atoms: _778  and  _780
REMARK  317  A    between atoms: _780  and  _781
REMARK  318  A    between atoms: _780  and  _783
REMARK  319  A    between atoms: _783  and  _784
REMARK  320  A    between atoms: _784  and  _785
REMARK                            x       y       z     vdW  Elec       q    Type
REMARK                         _______ _______ _______ _____ _____    ______ ____
ROOT
ATOM      1  O   HOH     1      17.422  46.877  15.945  0.00  0.00    +0.000 OA
ENDROOT
TORSDOF 0
REMARK  Name = ../refined-set-2016/3drf/3drf_pocket.pdb
REMARK  320 active torsions:
REMARK  status: ('A' for Active; 'I' for Inactive)
REMARK    1  A    between atoms: _1  and  _3
REMARK    2  A    between atoms: _3  and  _4
REMARK    3  A    between atoms: _3  and  _6
REMARK    4  A    between atoms: _6  and  _7
REMARK    5  A    between atoms: _12  and  _13
REMARK    6  A    between atoms: _15  and  _17
REMARK    7  A    between atoms: _17  and  _18
REMARK    8  A    between atoms: _17  and  _20
REMARK    9  A    between atoms: _20  and  _21
REMARK   10  A    between atoms: _21  and  _22
REMARK   11  A    between atoms: _27  and  _29
REMARK   12  A    between atoms: _29  and  _30
REMARK   13  A    between atoms: _29  and  _32
REMARK   14  A    between atoms: _32  and  _33
REMARK   15  A    between atoms: _35  and  _37
REMARK   16  A    between atoms: _37  and  _38
REMARK   17  A    between atoms: _37  and  _40
REMARK   18  A    between atoms: _40  and  _41
REMARK   19  A    between atoms: _44  and  _46
REMARK   20  A    between atoms: _46  and  _47
REMARK   21  A    between atoms: _46  and  _49
REMARK   22  A    between atoms: _49  and  _50
REMARK   23  A    between atoms: _52  and  _54
REMARK   24  A    between atoms: _54  and  _55
REMARK   25  A    between atoms: _54  and  _57
REMARK   26  A    between atoms: _57  and  _58
REMARK   27  A    between atoms: _60  and  _62
REMARK   28  A    between atoms: _62  and  _63
REMARK   29  A    between atoms: _65  and  _67
REMARK   30  A    between atoms: _67  and  _68
REMARK   31  A    between atoms: _67  and  _70
REMARK   32  A    between atoms: _70  and  _71
REMARK   33  A    between atoms: _73  and  _75
REMARK   34  A    between atoms: _75  and  _76
REMARK   35  A    between atoms: _75  and  _78
REMARK   36  A    between atoms: _78  and  _79
REMARK   37  A    between atoms: _84  and  _86
REMARK   38  A    between atoms: _86  and  _87
REMARK   39  A    between atoms: _86  and  _89
REMARK   40  A    between atoms: _89  and  _90
REMARK   41  A    between atoms: _93  and  _95
REMARK   42  A    between atoms: _95  and  _96
REMARK   43  A    between atoms: _99  and  _101
REMARK   44  A    between atoms: _101  and  _102
REMARK   45  A    between atoms: _101  and  _104
REMARK   46  A    between atoms: _104  and  _105
REMARK   47  A    between atoms: _108  and  _110
REMARK   48  A    between atoms: _110  and  _111
REMARK   49  A    between atoms: _110  and  _113
REMARK   50  A    between atoms: _113  and  _114
REMARK   51  A    between atoms: _120  and  _122
REMARK   52  A    between atoms: _122  and  _123
REMARK   53  A    between atoms: _126  and  _128
REMARK   54  A    between atoms: _128  and  _129
REMARK   55  A    between atoms: _128  and  _131
REMARK   56  A    between atoms: _131  and  _132
REMARK   57  A    between atoms: _135  and  _137
REMARK   58  A    between atoms: _137  and  _138
REMARK   59  A    between atoms: _140  and  _142
REMARK   60  A    between atoms: _142  and  _143
REMARK   61  A    between atoms: _142  and  _145
REMARK   62  A    between atoms: _145  and  _146
REMARK   63  A    between atoms: _146  and  _147
REMARK   64  A    between atoms: _152  and  _154
REMARK   65  A    between atoms: _154  and  _155
REMARK   66  A    between atoms: _157  and  _159
REMARK   67  A    between atoms: _159  and  _160
REMARK   68  A    between atoms: _159  and  _162
REMARK   69  A    between atoms: _162  and  _163
REMARK   70  A    between atoms: _166  and  _168
REMARK   71  A    between atoms: _168  and  _169
REMARK   72  A    between atoms: _168  and  _171
REMARK   73  A    between atoms: _171  and  _172
REMARK   74  A    between atoms: _178  and  _180
REMARK   75  A    between atoms: _180  and  _181
REMARK   76  A    between atoms: _180  and  _183
REMARK   77  A    between atoms: _183  and  _184
REMARK   78  A    between atoms: _187  and  _189
REMARK   79  A    between atoms: _189  and  _190
REMARK   80  A    between atoms: _189  and  _192
REMARK   81  A    between atoms: _192  and  _193
REMARK   82  A    between atoms: _199  and  _201
REMARK   83  A    between atoms: _201  and  _202
REMARK   84  A    between atoms: _201  and  _204
REMARK   85  A    between atoms: _204  and  _205
REMARK   86  A    between atoms: _211  and  _213
REMARK   87  A    between atoms: _213  and  _214
REMARK   88  A    between atoms: _213  and  _216
REMARK   89  A    between atoms: _216  and  _217
REMARK   90  A    between atoms: _220  and  _222
REMARK   91  A    between atoms: _222  and  _223
REMARK   92  A    between atoms: _222  and  _225
REMARK   93  A    between atoms: _225  and  _226
REMARK   94  A    between atoms: _229  and  _231
REMARK   95  A    between atoms: _231  and  _232
REMARK   96  A    between atoms: _231  and  _234
REMARK   97  A    between atoms: _234  and  _235
REMARK   98  A    between atoms: _235  and  _236
REMARK   99  A    between atoms: _236  and  _237
REMARK  100  A    between atoms: _246  and  _248
REMARK  101  A    between atoms: _248  and  _249
REMARK  102  A    between atoms: _248  and  _251
REMARK  103  A    between atoms: _251  and  _252
REMARK  104  A    between atoms: _255  and  _257
REMARK  105  A    between atoms: _257  and  _258
REMARK  106  A    between atoms: _257  and  _260
REMARK  107  A    between atoms: _260  and  _261
REMARK  108  A    between atoms: _263  and  _265
REMARK  109  A    between atoms: _265  and  _266
REMARK  110  A    between atoms: _265  and  _268
REMARK  111  A    between atoms: _268  and  _269
REMARK  112  A    between atoms: _269  and  _270
REMARK  113  A    between atoms: _275  and  _277
REMARK  114  A    between atoms: _277  and  _278
REMARK  115  A    between atoms: _277  and  _280
REMARK  116  A    between atoms: _280  and  _281
REMARK  117  A    between atoms: _283  and  _285
REMARK  118  A    between atoms: _285  and  _286
REMARK  119  A    between atoms: _288  and  _290
REMARK  120  A    between atoms: _290  and  _291
REMARK  121  A    between atoms: _290  and  _293
REMARK  122  A    between atoms: _293  and  _294
REMARK  123  A    between atoms: _299  and  _301
REMARK  124  A    between atoms: _301  and  _302
REMARK  125  A    between atoms: _304  and  _306
REMARK  126  A    between atoms: _306  and  _307
REMARK  127  A    between atoms: _306  and  _309
REMARK  128  A    between atoms: _309  and  _310
REMARK  129  A    between atoms: _315  and  _316
REMARK  130  A    between atoms: _318  and  _320
REMARK  131  A    between atoms: _320  and  _321
REMARK  132  A    between atoms: _320  and  _323
REMARK  133  A    between atoms: _323  and  _324
REMARK  134  A    between atoms: _330  and  _332
REMARK  135  A    between atoms: _332  and  _333
REMARK  136  A    between atoms: _332  and  _335
REMARK  137  A    between atoms: _335  and  _336
REMARK  138  A    between atoms: _339  and  _341
REMARK  139  A    between atoms: _341  and  _342
REMARK  140  A    between atoms: _341  and  _344
REMARK  141  A    between atoms: _344  and  _345
REMARK  142  A    between atoms: _345  and  _346
REMARK  143  A    between atoms: _349  and  _351
REMARK  144  A    between atoms: _351  and  _352
REMARK  145  A    between atoms: _351  and  _354
REMARK  146  A    between atoms: _354  and  _355
REMARK  147  A    between atoms: _358  and  _360
REMARK  148  A    between atoms: _360  and  _361
REMARK  149  A    between atoms: _360  and  _363
REMARK  150  A    between atoms: _363  and  _364
REMARK  151  A    between atoms: _367  and  _369
REMARK  152  A    between atoms: _369  and  _370
REMARK  153  A    between atoms: _372  and  _374
REMARK  154  A    between atoms: _374  and  _375
REMARK  155  A    between atoms: _374  and  _377
REMARK  156  A    between atoms: _380  and  _382
REMARK  157  A    between atoms: _382  and  _383
REMARK  158  A    between atoms: _382  and  _385
REMARK  159  A    between atoms: _385  and  _386
REMARK  160  A    between atoms: _388  and  _390
REMARK  161  A    between atoms: _390  and  _391
REMARK  162  A    between atoms: _390  and  _393
REMARK  163  A    between atoms: _393  and  _394
REMARK  164  A    between atoms: _394  and  _395
REMARK  165  A    between atoms: _397  and  _399
REMARK  166  A    between atoms: _399  and  _400
REMARK  167  A    between atoms: _399  and  _402
REMARK  168  A    between atoms: _402  and  _403
REMARK  169  A    between atoms: _408  and  _409
REMARK  170  A    between atoms: _411  and  _413
REMARK  171  A    between atoms: _413  and  _414
REMARK  172  A    between atoms: _413  and  _416
REMARK  173  A    between atoms: _416  and  _417
REMARK  174  A    between atoms: _420  and  _422
REMARK  175  A    between atoms: _422  and  _423
REMARK  176  A    between atoms: _422  and  _425
REMARK  177  A    between atoms: _425  and  _426
REMARK  178  A    between atoms: _428  and  _430
REMARK  179  A    between atoms: _430  and  _431
REMARK  180  A    between atoms: _430  and  _433
REMARK  181  A    between atoms: _433  and  _434
REMARK  182  A    between atoms: _437  and  _439
REMARK  183  A    between atoms: _439  and  _440
REMARK  184  A    between atoms: _439  and  _442
REMARK  185  A    between atoms: _442  and  _443
REMARK  186  A    between atoms: _448  and  _449
REMARK  187  A    between atoms: _451  and  _453
REMARK  188  A    between atoms: _453  and  _454
REMARK  189  A    between atoms: _453  and  _456
REMARK  190  A    between atoms: _456  and  _457
REMARK  191  A    between atoms: _459  and  _461
REMARK  192  A    between atoms: _461  and  _462
REMARK  193  A    between atoms: _461  and  _464
REMARK  194  A    between atoms: _464  and  _465
REMARK  195  A    between atoms: _471  and  _473
REMARK  196  A    between atoms: _473  and  _474
REMARK  197  A    between atoms: _473  and  _476
REMARK  198  A    between atoms: _476  and  _477
REMARK  199  A    between atoms: _477  and  _478
REMARK  200  A    between atoms: _478  and  _479
REMARK  201  A    between atoms: _488  and  _490
REMARK  202  A    between atoms: _490  and  _491
REMARK  203  A    between atoms: _490  and  _493
REMARK  204  A    between atoms: _496  and  _498
REMARK  205  A    between atoms: _498  and  _499
REMARK  206  A    between atoms: _501  and  _503
REMARK  207  A    between atoms: _503  and  _504
REMARK  208  A    between atoms: _503  and  _506
REMARK  209  A    between atoms: _506  and  _507
REMARK  210  A    between atoms: _510  and  _512
REMARK  211  A    between atoms: _512  and  _513
REMARK  212  A    between atoms: _512  and  _515
REMARK  213  A    between atoms: _515  and  _516
REMARK  214  A    between atoms: _516  and  _517
REMARK  215  A    between atoms: _519  and  _521
REMARK  216  A    between atoms: _521  and  _522
REMARK  217  A    between atoms: _521  and  _524
REMARK  218  A    between atoms: _524  and  _525
REMARK  219  A    between atoms: _531  and  _533
REMARK  220  A    between atoms: _533  and  _534
REMARK  221  A    between atoms: _533  and  _536
REMARK  222  A    between atoms: _536  and  _537
REMARK  223  A    between atoms: _542  and  _544
REMARK  224  A    between atoms: _544  and  _545
REMARK  225  A    between atoms: _544  and  _547
REMARK  226  A    between atoms: _547  and  _548
REMARK  227  A    between atoms: _558  and  _560
REMARK  228  A    between atoms: _560  and  _561
REMARK  229  A    between atoms: _560  and  _563
REMARK  230  A    between atoms: _566  and  _568
REMARK  231  A    between atoms: _568  and  _569
REMARK  232  A    between atoms: _568  and  _571
REMARK  233  A    between atoms: _571  and  _572
REMARK  234  A    between atoms: _575  and  _577
REMARK  235  A    between atoms: _577  and  _578
REMARK  236  A    between atoms: _577  and  _580
REMARK  237  A    between atoms: _580  and  _581
REMARK  238  A    between atoms: _581  and  _582
REMARK  239  A    between atoms: _584  and  _586
REMARK  240  A    between atoms: _586  and  _587
REMARK  241  A    between atoms: _586  and  _589
REMARK  242  A    between atoms: _589  and  _590
REMARK  243  A    between atoms: _593  and  _595
REMARK  244  A    between atoms: _595  and  _596
REMARK  245  A    between atoms: _595  and  _598
REMARK  246  A    between atoms: _598  and  _599
REMARK  247  A    between atoms: _602  and  _604
REMARK  248  A    between atoms: _604  and  _605
REMARK  249  A    between atoms: _607  and  _609
REMARK  250  A    between atoms: _609  and  _610
REMARK  251  A    between atoms: _609  and  _612
REMARK  252  A    between atoms: _612  and  _613
REMARK  253  A    between atoms: _615  and  _617
REMARK  254  A    between atoms: _617  and  _618
REMARK  255  A    between atoms: _617  and  _620
REMARK  256  A    between atoms: _620  and  _621
REMARK  257  A    between atoms: _631  and  _633
REMARK  258  A    between atoms: _633  and  _634
REMARK  259  A    between atoms: _633  and  _636
REMARK  260  A    between atoms: _636  and  _637
REMARK  261  A    between atoms: _639  and  _641
REMARK  262  A    between atoms: _641  and  _642
REMARK  263  A    between atoms: _641  and  _644
REMARK  264  A    between atoms: _644  and  _645
REMARK  265  A    between atoms: _648  and  _650
REMARK  266  A    between atoms: _650  and  _651
REMARK  267  A    between atoms: _654  and  _656
REMARK  268  A    between atoms: _656  and  _657
REMARK  269  A    between atoms: _656  and  _659
REMARK  270  A    between atoms: _659  and  _660
REMARK  271  A    between atoms: _662  and  _664
REMARK  272  A    between atoms: _664  and  _665
REMARK  273  A    between atoms: _664  and  _667
REMARK  274  A    between atoms: _667  and  _668
REMARK  275  A    between atoms: _668  and  _669
REMARK  276  A    between atoms: _673  and  _674
REMARK  277  A    between atoms: _679  and  _681
REMARK  278  A    between atoms: _681  and  _682
REMARK  279  A    between atoms: _681  and  _684
REMARK  280  A    between atoms: _684  and  _685
REMARK  281  A    between atoms: _687  and  _689
REMARK  282  A    between atoms: _689  and  _690
REMARK  283  A    between atoms: _689  and  _692
REMARK  284  A    between atoms: _692  and  _693
REMARK  285  A    between atoms: _693  and  _694
REMARK  286  A    between atoms: _699  and  _701
REMARK  287  A    between atoms: _701  and  _702
REMARK  288  A    between atoms: _701  and  _704
REMARK  289  A    between atoms: _704  and  _705
REMARK  290  A    between atoms: _705  and  _706
REMARK  291  A    between atoms: _711  and  _713
REMARK  292  A    between atoms: _713  and  _714
REMARK  293  A    between atoms: _713  and  _716
REMARK  294  A    between atoms: _716  and  _717
REMARK  295  A    between atoms: _720  and  _722
REMARK  296  A    between atoms: _722  and  _723
REMARK  297  A    between atoms: _722  and  _725
REMARK  298  A    between atoms: _725  and  _726
REMARK  299  A    between atoms: _729  and  _731
REMARK  300  A    between atoms: _731  and  _732
REMARK  301  A    between atoms: _731  and  _734
REMARK  302  A    between atoms: _734  and  _735
REMARK  303  A    between atoms: _741  and  _743
REMARK  304  A    between atoms: _743  and  _744
REMARK  305  A    between atoms: _743  and  _746
REMARK  306  A    between atoms: _746  and  _747
REMARK  307  A    between atoms: _752  and  _753
REMARK  308  A    between atoms: _755  and  _757
REMARK  309  A    between atoms: _757  and  _758
REMARK  310  A    between atoms: _757  and  _760
REMARK  311  A    between atoms: _760  and  _761
REMARK  312  A    between atoms: _767  and  _769
REMARK  313  A    between atoms: _769  and  _770
REMARK  314  A    between atoms: _769  and  _772
REMARK  315  A    between atoms: _772  and  _773
REMARK  316  A    between atoms: _778  and  _780
REMARK  317  A    between atoms: _780  and  _781
REMARK  318  A    between atoms: _780  and  _783
REMARK  319  A    between atoms: _783  and  _784
REMARK  320  A    between atoms: _784  and  _785
REMARK                            x       y       z     vdW  Elec       q    Type
REMARK                         _______ _______ _______ _____ _____    ______ ____
ROOT
ATOM      1  O   HOH     1       9.636  59.002  23.620  0.00  0.00    +0.000 OA
ENDROOT
TORSDOF 0
REMARK  Name = ../refined-set-2016/3drf/3drf_pocket.pdb
REMARK  320 active torsions:
REMARK  status: ('A' for Active; 'I' for Inactive)
REMARK    1  A    between atoms: _1  and  _3
REMARK    2  A    between atoms: _3  and  _4
REMARK    3  A    between atoms: _3  and  _6
REMARK    4  A    between atoms: _6  and  _7
REMARK    5  A    between atoms: _12  and  _13
REMARK    6  A    between atoms: _15  and  _17
REMARK    7  A    between atoms: _17  and  _18
REMARK    8  A    between atoms: _17  and  _20
REMARK    9  A    between atoms: _20  and  _21
REMARK   10  A    between atoms: _21  and  _22
REMARK   11  A    between atoms: _27  and  _29
REMARK   12  A    between atoms: _29  and  _30
REMARK   13  A    between atoms: _29  and  _32
REMARK   14  A    between atoms: _32  and  _33
REMARK   15  A    between atoms: _35  and  _37
REMARK   16  A    between atoms: _37  and  _38
REMARK   17  A    between atoms: _37  and  _40
REMARK   18  A    between atoms: _40  and  _41
REMARK   19  A    between atoms: _44  and  _46
REMARK   20  A    between atoms: _46  and  _47
REMARK   21  A    between atoms: _46  and  _49
REMARK   22  A    between atoms: _49  and  _50
REMARK   23  A    between atoms: _52  and  _54
REMARK   24  A    between atoms: _54  and  _55
REMARK   25  A    between atoms: _54  and  _57
REMARK   26  A    between atoms: _57  and  _58
REMARK   27  A    between atoms: _60  and  _62
REMARK   28  A    between atoms: _62  and  _63
REMARK   29  A    between atoms: _65  and  _67
REMARK   30  A    between atoms: _67  and  _68
REMARK   31  A    between atoms: _67  and  _70
REMARK   32  A    between atoms: _70  and  _71
REMARK   33  A    between atoms: _73  and  _75
REMARK   34  A    between atoms: _75  and  _76
REMARK   35  A    between atoms: _75  and  _78
REMARK   36  A    between atoms: _78  and  _79
REMARK   37  A    between atoms: _84  and  _86
REMARK   38  A    between atoms: _86  and  _87
REMARK   39  A    between atoms: _86  and  _89
REMARK   40  A    between atoms: _89  and  _90
REMARK   41  A    between atoms: _93  and  _95
REMARK   42  A    between atoms: _95  and  _96
REMARK   43  A    between atoms: _99  and  _101
REMARK   44  A    between atoms: _101  and  _102
REMARK   45  A    between atoms: _101  and  _104
REMARK   46  A    between atoms: _104  and  _105
REMARK   47  A    between atoms: _108  and  _110
REMARK   48  A    between atoms: _110  and  _111
REMARK   49  A    between atoms: _110  and  _113
REMARK   50  A    between atoms: _113  and  _114
REMARK   51  A    between atoms: _120  and  _122
REMARK   52  A    between atoms: _122  and  _123
REMARK   53  A    between atoms: _126  and  _128
REMARK   54  A    between atoms: _128  and  _129
REMARK   55  A    between atoms: _128  and  _131
REMARK   56  A    between atoms: _131  and  _132
REMARK   57  A    between atoms: _135  and  _137
REMARK   58  A    between atoms: _137  and  _138
REMARK   59  A    between atoms: _140  and  _142
REMARK   60  A    between atoms: _142  and  _143
REMARK   61  A    between atoms: _142  and  _145
REMARK   62  A    between atoms: _145  and  _146
REMARK   63  A    between atoms: _146  and  _147
REMARK   64  A    between atoms: _152  and  _154
REMARK   65  A    between atoms: _154  and  _155
REMARK   66  A    between atoms: _157  and  _159
REMARK   67  A    between atoms: _159  and  _160
REMARK   68  A    between atoms: _159  and  _162
REMARK   69  A    between atoms: _162  and  _163
REMARK   70  A    between atoms: _166  and  _168
REMARK   71  A    between atoms: _168  and  _169
REMARK   72  A    between atoms: _168  and  _171
REMARK   73  A    between atoms: _171  and  _172
REMARK   74  A    between atoms: _178  and  _180
REMARK   75  A    between atoms: _180  and  _181
REMARK   76  A    between atoms: _180  and  _183
REMARK   77  A    between atoms: _183  and  _184
REMARK   78  A    between atoms: _187  and  _189
REMARK   79  A    between atoms: _189  and  _190
REMARK   80  A    between atoms: _189  and  _192
REMARK   81  A    between atoms: _192  and  _193
REMARK   82  A    between atoms: _199  and  _201
REMARK   83  A    between atoms: _201  and  _202
REMARK   84  A    between atoms: _201  and  _204
REMARK   85  A    between atoms: _204  and  _205
REMARK   86  A    between atoms: _211  and  _213
REMARK   87  A    between atoms: _213  and  _214
REMARK   88  A    between atoms: _213  and  _216
REMARK   89  A    between atoms: _216  and  _217
REMARK   90  A    between atoms: _220  and  _222
REMARK   91  A    between atoms: _222  and  _223
REMARK   92  A    between atoms: _222  and  _225
REMARK   93  A    between atoms: _225  and  _226
REMARK   94  A    between atoms: _229  and  _231
REMARK   95  A    between atoms: _231  and  _232
REMARK   96  A    between atoms: _231  and  _234
REMARK   97  A    between atoms: _234  and  _235
REMARK   98  A    between atoms: _235  and  _236
REMARK   99  A    between atoms: _236  and  _237
REMARK  100  A    between atoms: _246  and  _248
REMARK  101  A    between atoms: _248  and  _249
REMARK  102  A    between atoms: _248  and  _251
REMARK  103  A    between atoms: _251  and  _252
REMARK  104  A    between atoms: _255  and  _257
REMARK  105  A    between atoms: _257  and  _258
REMARK  106  A    between atoms: _257  and  _260
REMARK  107  A    between atoms: _260  and  _261
REMARK  108  A    between atoms: _263  and  _265
REMARK  109  A    between atoms: _265  and  _266
REMARK  110  A    between atoms: _265  and  _268
REMARK  111  A    between atoms: _268  and  _269
REMARK  112  A    between atoms: _269  and  _270
REMARK  113  A    between atoms: _275  and  _277
REMARK  114  A    between atoms: _277  and  _278
REMARK  115  A    between atoms: _277  and  _280
REMARK  116  A    between atoms: _280  and  _281
REMARK  117  A    between atoms: _283  and  _285
REMARK  118  A    between atoms: _285  and  _286
REMARK  119  A    between atoms: _288  and  _290
REMARK  120  A    between atoms: _290  and  _291
REMARK  121  A    between atoms: _290  and  _293
REMARK  122  A    between atoms: _293  and  _294
REMARK  123  A    between atoms: _299  and  _301
REMARK  124  A    between atoms: _301  and  _302
REMARK  125  A    between atoms: _304  and  _306
REMARK  126  A    between atoms: _306  and  _307
REMARK  127  A    between atoms: _306  and  _309
REMARK  128  A    between atoms: _309  and  _310
REMARK  129  A    between atoms: _315  and  _316
REMARK  130  A    between atoms: _318  and  _320
REMARK  131  A    between atoms: _320  and  _321
REMARK  132  A    between atoms: _320  and  _323
REMARK  133  A    between atoms: _323  and  _324
REMARK  134  A    between atoms: _330  and  _332
REMARK  135  A    between atoms: _332  and  _333
REMARK  136  A    between atoms: _332  and  _335
REMARK  137  A    between atoms: _335  and  _336
REMARK  138  A    between atoms: _339  and  _341
REMARK  139  A    between atoms: _341  and  _342
REMARK  140  A    between atoms: _341  and  _344
REMARK  141  A    between atoms: _344  and  _345
REMARK  142  A    between atoms: _345  and  _346
REMARK  143  A    between atoms: _349  and  _351
REMARK  144  A    between atoms: _351  and  _352
REMARK  145  A    between atoms: _351  and  _354
REMARK  146  A    between atoms: _354  and  _355
REMARK  147  A    between atoms: _358  and  _360
REMARK  148  A    between atoms: _360  and  _361
REMARK  149  A    between atoms: _360  and  _363
REMARK  150  A    between atoms: _363  and  _364
REMARK  151  A    between atoms: _367  and  _369
REMARK  152  A    between atoms: _369  and  _370
REMARK  153  A    between atoms: _372  and  _374
REMARK  154  A    between atoms: _374  and  _375
REMARK  155  A    between atoms: _374  and  _377
REMARK  156  A    between atoms: _380  and  _382
REMARK  157  A    between atoms: _382  and  _383
REMARK  158  A    between atoms: _382  and  _385
REMARK  159  A    between atoms: _385  and  _386
REMARK  160  A    between atoms: _388  and  _390
REMARK  161  A    between atoms: _390  and  _391
REMARK  162  A    between atoms: _390  and  _393
REMARK  163  A    between atoms: _393  and  _394
REMARK  164  A    between atoms: _394  and  _395
REMARK  165  A    between atoms: _397  and  _399
REMARK  166  A    between atoms: _399  and  _400
REMARK  167  A    between atoms: _399  and  _402
REMARK  168  A    between atoms: _402  and  _403
REMARK  169  A    between atoms: _408  and  _409
REMARK  170  A    between atoms: _411  and  _413
REMARK  171  A    between atoms: _413  and  _414
REMARK  172  A    between atoms: _413  and  _416
REMARK  173  A    between atoms: _416  and  _417
REMARK  174  A    between atoms: _420  and  _422
REMARK  175  A    between atoms: _422  and  _423
REMARK  176  A    between atoms: _422  and  _425
REMARK  177  A    between atoms: _425  and  _426
REMARK  178  A    between atoms: _428  and  _430
REMARK  179  A    between atoms: _430  and  _431
REMARK  180  A    between atoms: _430  and  _433
REMARK  181  A    between atoms: _433  and  _434
REMARK  182  A    between atoms: _437  and  _439
REMARK  183  A    between atoms: _439  and  _440
REMARK  184  A    between atoms: _439  and  _442
REMARK  185  A    between atoms: _442  and  _443
REMARK  186  A    between atoms: _448  and  _449
REMARK  187  A    between atoms: _451  and  _453
REMARK  188  A    between atoms: _453  and  _454
REMARK  189  A    between atoms: _453  and  _456
REMARK  190  A    between atoms: _456  and  _457
REMARK  191  A    between atoms: _459  and  _461
REMARK  192  A    between atoms: _461  and  _462
REMARK  193  A    between atoms: _461  and  _464
REMARK  194  A    between atoms: _464  and  _465
REMARK  195  A    between atoms: _471  and  _473
REMARK  196  A    between atoms: _473  and  _474
REMARK  197  A    between atoms: _473  and  _476
REMARK  198  A    between atoms: _476  and  _477
REMARK  199  A    between atoms: _477  and  _478
REMARK  200  A    between atoms: _478  and  _479
REMARK  201  A    between atoms: _488  and  _490
REMARK  202  A    between atoms: _490  and  _491
REMARK  203  A    between atoms: _490  and  _493
REMARK  204  A    between atoms: _496  and  _498
REMARK  205  A    between atoms: _498  and  _499
REMARK  206  A    between atoms: _501  and  _503
REMARK  207  A    between atoms: _503  and  _504
REMARK  208  A    between atoms: _503  and  _506
REMARK  209  A    between atoms: _506  and  _507
REMARK  210  A    between atoms: _510  and  _512
REMARK  211  A    between atoms: _512  and  _513
REMARK  212  A    between atoms: _512  and  _515
REMARK  213  A    between atoms: _515  and  _516
REMARK  214  A    between atoms: _516  and  _517
REMARK  215  A    between atoms: _519  and  _521
REMARK  216  A    between atoms: _521  and  _522
REMARK  217  A    between atoms: _521  and  _524
REMARK  218  A    between atoms: _524  and  _525
REMARK  219  A    between atoms: _531  and  _533
REMARK  220  A    between atoms: _533  and  _534
REMARK  221  A    between atoms: _533  and  _536
REMARK  222  A    between atoms: _536  and  _537
REMARK  223  A    between atoms: _542  and  _544
REMARK  224  A    between atoms: _544  and  _545
REMARK  225  A    between atoms: _544  and  _547
REMARK  226  A    between atoms: _547  and  _548
REMARK  227  A    between atoms: _558  and  _560
REMARK  228  A    between atoms: _560  and  _561
REMARK  229  A    between atoms: _560  and  _563
REMARK  230  A    between atoms: _566  and  _568
REMARK  231  A    between atoms: _568  and  _569
REMARK  232  A    between atoms: _568  and  _571
REMARK  233  A    between atoms: _571  and  _572
REMARK  234  A    between atoms: _575  and  _577
REMARK  235  A    between atoms: _577  and  _578
REMARK  236  A    between atoms: _577  and  _580
REMARK  237  A    between atoms: _580  and  _581
REMARK  238  A    between atoms: _581  and  _582
REMARK  239  A    between atoms: _584  and  _586
REMARK  240  A    between atoms: _586  and  _587
REMARK  241  A    between atoms: _586  and  _589
REMARK  242  A    between atoms: _589  and  _590
REMARK  243  A    between atoms: _593  and  _595
REMARK  244  A    between atoms: _595  and  _596
REMARK  245  A    between atoms: _595  and  _598
REMARK  246  A    between atoms: _598  and  _599
REMARK  247  A    between atoms: _602  and  _604
REMARK  248  A    between atoms: _604  and  _605
REMARK  249  A    between atoms: _607  and  _609
REMARK  250  A    between atoms: _609  and  _610
REMARK  251  A    between atoms: _609  and  _612
REMARK  252  A    between atoms: _612  and  _613
REMARK  253  A    between atoms: _615  and  _617
REMARK  254  A    between atoms: _617  and  _618
REMARK  255  A    between atoms: _617  and  _620
REMARK  256  A    between atoms: _620  and  _621
REMARK  257  A    between atoms: _631  and  _633
REMARK  258  A    between atoms: _633  and  _634
REMARK  259  A    between atoms: _633  and  _636
REMARK  260  A    between atoms: _636  and  _637
REMARK  261  A    between atoms: _639  and  _641
REMARK  262  A    between atoms: _641  and  _642
REMARK  263  A    between atoms: _641  and  _644
REMARK  264  A    between atoms: _644  and  _645
REMARK  265  A    between atoms: _648  and  _650
REMARK  266  A    between atoms: _650  and  _651
REMARK  267  A    between atoms: _654  and  _656
REMARK  268  A    between atoms: _656  and  _657
REMARK  269  A    between atoms: _656  and  _659
REMARK  270  A    between atoms: _659  and  _660
REMARK  271  A    between atoms: _662  and  _664
REMARK  272  A    between atoms: _664  and  _665
REMARK  273  A    between atoms: _664  and  _667
REMARK  274  A    between atoms: _667  and  _668
REMARK  275  A    between atoms: _668  and  _669
REMARK  276  A    between atoms: _673  and  _674
REMARK  277  A    between atoms: _679  and  _681
REMARK  278  A    between atoms: _681  and  _682
REMARK  279  A    between atoms: _681  and  _684
REMARK  280  A    between atoms: _684  and  _685
REMARK  281  A    between atoms: _687  and  _689
REMARK  282  A    between atoms: _689  and  _690
REMARK  283  A    between atoms: _689  and  _692
REMARK  284  A    between atoms: _692  and  _693
REMARK  285  A    between atoms: _693  and  _694
REMARK  286  A    between atoms: _699  and  _701
REMARK  287  A    between atoms: _701  and  _702
REMARK  288  A    between atoms: _701  and  _704
REMARK  289  A    between atoms: _704  and  _705
REMARK  290  A    between atoms: _705  and  _706
REMARK  291  A    between atoms: _711  and  _713
REMARK  292  A    between atoms: _713  and  _714
REMARK  293  A    between atoms: _713  and  _716
REMARK  294  A    between atoms: _716  and  _717
REMARK  295  A    between atoms: _720  and  _722
REMARK  296  A    between atoms: _722  and  _723
REMARK  297  A    between atoms: _722  and  _725
REMARK  298  A    between atoms: _725  and  _726
REMARK  299  A    between atoms: _729  and  _731
REMARK  300  A    between atoms: _731  and  _732
REMARK  301  A    between atoms: _731  and  _734
REMARK  302  A    between atoms: _734  and  _735
REMARK  303  A    between atoms: _741  and  _743
REMARK  304  A    between atoms: _743  and  _744
REMARK  305  A    between atoms: _743  and  _746
REMARK  306  A    between atoms: _746  and  _747
REMARK  307  A    between atoms: _752  and  _753
REMARK  308  A    between atoms: _755  and  _757
REMARK  309  A    between atoms: _757  and  _758
REMARK  310  A    between atoms: _757  and  _760
REMARK  311  A    between atoms: _760  and  _761
REMARK  312  A    between atoms: _767  and  _769
REMARK  313  A    between atoms: _769  and  _770
REMARK  314  A    between atoms: _769  and  _772
REMARK  315  A    between atoms: _772  and  _773
REMARK  316  A    between atoms: _778  and  _780
REMARK  317  A    between atoms: _780  and  _781
REMARK  318  A    between atoms: _780  and  _783
REMARK  319  A    between atoms: _783  and  _784
REMARK  320  A    between atoms: _784  and  _785
REMARK                            x       y       z     vdW  Elec       q    Type
REMARK                         _______ _______ _______ _____ _____    ______ ____
ROOT
ATOM      1  O   HOH     1      21.718  52.569  27.359  0.00  0.00    +0.000 OA
ENDROOT
TORSDOF 0
REMARK  Name = ../refined-set-2016/3drf/3drf_pocket.pdb
REMARK  320 active torsions:
REMARK  status: ('A' for Active; 'I' for Inactive)
REMARK    1  A    between atoms: _1  and  _3
REMARK    2  A    between atoms: _3  and  _4
REMARK    3  A    between atoms: _3  and  _6
REMARK    4  A    between atoms: _6  and  _7
REMARK    5  A    between atoms: _12  and  _13
REMARK    6  A    between atoms: _15  and  _17
REMARK    7  A    between atoms: _17  and  _18
REMARK    8  A    between atoms: _17  and  _20
REMARK    9  A    between atoms: _20  and  _21
REMARK   10  A    between atoms: _21  and  _22
REMARK   11  A    between atoms: _27  and  _29
REMARK   12  A    between atoms: _29  and  _30
REMARK   13  A    between atoms: _29  and  _32
REMARK   14  A    between atoms: _32  and  _33
REMARK   15  A    between atoms: _35  and  _37
REMARK   16  A    between atoms: _37  and  _38
REMARK   17  A    between atoms: _37  and  _40
REMARK   18  A    between atoms: _40  and  _41
REMARK   19  A    between atoms: _44  and  _46
REMARK   20  A    between atoms: _46  and  _47
REMARK   21  A    between atoms: _46  and  _49
REMARK   22  A    between atoms: _49  and  _50
REMARK   23  A    between atoms: _52  and  _54
REMARK   24  A    between atoms: _54  and  _55
REMARK   25  A    between atoms: _54  and  _57
REMARK   26  A    between atoms: _57  and  _58
REMARK   27  A    between atoms: _60  and  _62
REMARK   28  A    between atoms: _62  and  _63
REMARK   29  A    between atoms: _65  and  _67
REMARK   30  A    between atoms: _67  and  _68
REMARK   31  A    between atoms: _67  and  _70
REMARK   32  A    between atoms: _70  and  _71
REMARK   33  A    between atoms: _73  and  _75
REMARK   34  A    between atoms: _75  and  _76
REMARK   35  A    between atoms: _75  and  _78
REMARK   36  A    between atoms: _78  and  _79
REMARK   37  A    between atoms: _84  and  _86
REMARK   38  A    between atoms: _86  and  _87
REMARK   39  A    between atoms: _86  and  _89
REMARK   40  A    between atoms: _89  and  _90
REMARK   41  A    between atoms: _93  and  _95
REMARK   42  A    between atoms: _95  and  _96
REMARK   43  A    between atoms: _99  and  _101
REMARK   44  A    between atoms: _101  and  _102
REMARK   45  A    between atoms: _101  and  _104
REMARK   46  A    between atoms: _104  and  _105
REMARK   47  A    between atoms: _108  and  _110
REMARK   48  A    between atoms: _110  and  _111
REMARK   49  A    between atoms: _110  and  _113
REMARK   50  A    between atoms: _113  and  _114
REMARK   51  A    between atoms: _120  and  _122
REMARK   52  A    between atoms: _122  and  _123
REMARK   53  A    between atoms: _126  and  _128
REMARK   54  A    between atoms: _128  and  _129
REMARK   55  A    between atoms: _128  and  _131
REMARK   56  A    between atoms: _131  and  _132
REMARK   57  A    between atoms: _135  and  _137
REMARK   58  A    between atoms: _137  and  _138
REMARK   59  A    between atoms: _140  and  _142
REMARK   60  A    between atoms: _142  and  _143
REMARK   61  A    between atoms: _142  and  _145
REMARK   62  A    between atoms: _145  and  _146
REMARK   63  A    between atoms: _146  and  _147
REMARK   64  A    between atoms: _152  and  _154
REMARK   65  A    between atoms: _154  and  _155
REMARK   66  A    between atoms: _157  and  _159
REMARK   67  A    between atoms: _159  and  _160
REMARK   68  A    between atoms: _159  and  _162
REMARK   69  A    between atoms: _162  and  _163
REMARK   70  A    between atoms: _166  and  _168
REMARK   71  A    between atoms: _168  and  _169
REMARK   72  A    between atoms: _168  and  _171
REMARK   73  A    between atoms: _171  and  _172
REMARK   74  A    between atoms: _178  and  _180
REMARK   75  A    between atoms: _180  and  _181
REMARK   76  A    between atoms: _180  and  _183
REMARK   77  A    between atoms: _183  and  _184
REMARK   78  A    between atoms: _187  and  _189
REMARK   79  A    between atoms: _189  and  _190
REMARK   80  A    between atoms: _189  and  _192
REMARK   81  A    between atoms: _192  and  _193
REMARK   82  A    between atoms: _199  and  _201
REMARK   83  A    between atoms: _201  and  _202
REMARK   84  A    between atoms: _201  and  _204
REMARK   85  A    between atoms: _204  and  _205
REMARK   86  A    between atoms: _211  and  _213
REMARK   87  A    between atoms: _213  and  _214
REMARK   88  A    between atoms: _213  and  _216
REMARK   89  A    between atoms: _216  and  _217
REMARK   90  A    between atoms: _220  and  _222
REMARK   91  A    between atoms: _222  and  _223
REMARK   92  A    between atoms: _222  and  _225
REMARK   93  A    between atoms: _225  and  _226
REMARK   94  A    between atoms: _229  and  _231
REMARK   95  A    between atoms: _231  and  _232
REMARK   96  A    between atoms: _231  and  _234
REMARK   97  A    between atoms: _234  and  _235
REMARK   98  A    between atoms: _235  and  _236
REMARK   99  A    between atoms: _236  and  _237
REMARK  100  A    between atoms: _246  and  _248
REMARK  101  A    between atoms: _248  and  _249
REMARK  102  A    between atoms: _248  and  _251
REMARK  103  A    between atoms: _251  and  _252
REMARK  104  A    between atoms: _255  and  _257
REMARK  105  A    between atoms: _257  and  _258
REMARK  106  A    between atoms: _257  and  _260
REMARK  107  A    between atoms: _260  and  _261
REMARK  108  A    between atoms: _263  and  _265
REMARK  109  A    between atoms: _265  and  _266
REMARK  110  A    between atoms: _265  and  _268
REMARK  111  A    between atoms: _268  and  _269
REMARK  112  A    between atoms: _269  and  _270
REMARK  113  A    between atoms: _275  and  _277
REMARK  114  A    between atoms: _277  and  _278
REMARK  115  A    between atoms: _277  and  _280
REMARK  116  A    between atoms: _280  and  _281
REMARK  117  A    between atoms: _283  and  _285
REMARK  118  A    between atoms: _285  and  _286
REMARK  119  A    between atoms: _288  and  _290
REMARK  120  A    between atoms: _290  and  _291
REMARK  121  A    between atoms: _290  and  _293
REMARK  122  A    between atoms: _293  and  _294
REMARK  123  A    between atoms: _299  and  _301
REMARK  124  A    between atoms: _301  and  _302
REMARK  125  A    between atoms: _304  and  _306
REMARK  126  A    between atoms: _306  and  _307
REMARK  127  A    between atoms: _306  and  _309
REMARK  128  A    between atoms: _309  and  _310
REMARK  129  A    between atoms: _315  and  _316
REMARK  130  A    between atoms: _318  and  _320
REMARK  131  A    between atoms: _320  and  _321
REMARK  132  A    between atoms: _320  and  _323
REMARK  133  A    between atoms: _323  and  _324
REMARK  134  A    between atoms: _330  and  _332
REMARK  135  A    between atoms: _332  and  _333
REMARK  136  A    between atoms: _332  and  _335
REMARK  137  A    between atoms: _335  and  _336
REMARK  138  A    between atoms: _339  and  _341
REMARK  139  A    between atoms: _341  and  _342
REMARK  140  A    between atoms: _341  and  _344
REMARK  141  A    between atoms: _344  and  _345
REMARK  142  A    between atoms: _345  and  _346
REMARK  143  A    between atoms: _349  and  _351
REMARK  144  A    between atoms: _351  and  _352
REMARK  145  A    between atoms: _351  and  _354
REMARK  146  A    between atoms: _354  and  _355
REMARK  147  A    between atoms: _358  and  _360
REMARK  148  A    between atoms: _360  and  _361
REMARK  149  A    between atoms: _360  and  _363
REMARK  150  A    between atoms: _363  and  _364
REMARK  151  A    between atoms: _367  and  _369
REMARK  152  A    between atoms: _369  and  _370
REMARK  153  A    between atoms: _372  and  _374
REMARK  154  A    between atoms: _374  and  _375
REMARK  155  A    between atoms: _374  and  _377
REMARK  156  A    between atoms: _380  and  _382
REMARK  157  A    between atoms: _382  and  _383
REMARK  158  A    between atoms: _382  and  _385
REMARK  159  A    between atoms: _385  and  _386
REMARK  160  A    between atoms: _388  and  _390
REMARK  161  A    between atoms: _390  and  _391
REMARK  162  A    between atoms: _390  and  _393
REMARK  163  A    between atoms: _393  and  _394
REMARK  164  A    between atoms: _394  and  _395
REMARK  165  A    between atoms: _397  and  _399
REMARK  166  A    between atoms: _399  and  _400
REMARK  167  A    between atoms: _399  and  _402
REMARK  168  A    between atoms: _402  and  _403
REMARK  169  A    between atoms: _408  and  _409
REMARK  170  A    between atoms: _411  and  _413
REMARK  171  A    between atoms: _413  and  _414
REMARK  172  A    between atoms: _413  and  _416
REMARK  173  A    between atoms: _416  and  _417
REMARK  174  A    between atoms: _420  and  _422
REMARK  175  A    between atoms: _422  and  _423
REMARK  176  A    between atoms: _422  and  _425
REMARK  177  A    between atoms: _425  and  _426
REMARK  178  A    between atoms: _428  and  _430
REMARK  179  A    between atoms: _430  and  _431
REMARK  180  A    between atoms: _430  and  _433
REMARK  181  A    between atoms: _433  and  _434
REMARK  182  A    between atoms: _437  and  _439
REMARK  183  A    between atoms: _439  and  _440
REMARK  184  A    between atoms: _439  and  _442
REMARK  185  A    between atoms: _442  and  _443
REMARK  186  A    between atoms: _448  and  _449
REMARK  187  A    between atoms: _451  and  _453
REMARK  188  A    between atoms: _453  and  _454
REMARK  189  A    between atoms: _453  and  _456
REMARK  190  A    between atoms: _456  and  _457
REMARK  191  A    between atoms: _459  and  _461
REMARK  192  A    between atoms: _461  and  _462
REMARK  193  A    between atoms: _461  and  _464
REMARK  194  A    between atoms: _464  and  _465
REMARK  195  A    between atoms: _471  and  _473
REMARK  196  A    between atoms: _473  and  _474
REMARK  197  A    between atoms: _473  and  _476
REMARK  198  A    between atoms: _476  and  _477
REMARK  199  A    between atoms: _477  and  _478
REMARK  200  A    between atoms: _478  and  _479
REMARK  201  A    between atoms: _488  and  _490
REMARK  202  A    between atoms: _490  and  _491
REMARK  203  A    between atoms: _490  and  _493
REMARK  204  A    between atoms: _496  and  _498
REMARK  205  A    between atoms: _498  and  _499
REMARK  206  A    between atoms: _501  and  _503
REMARK  207  A    between atoms: _503  and  _504
REMARK  208  A    between atoms: _503  and  _506
REMARK  209  A    between atoms: _506  and  _507
REMARK  210  A    between atoms: _510  and  _512
REMARK  211  A    between atoms: _512  and  _513
REMARK  212  A    between atoms: _512  and  _515
REMARK  213  A    between atoms: _515  and  _516
REMARK  214  A    between atoms: _516  and  _517
REMARK  215  A    between atoms: _519  and  _521
REMARK  216  A    between atoms: _521  and  _522
REMARK  217  A    between atoms: _521  and  _524
REMARK  218  A    between atoms: _524  and  _525
REMARK  219  A    between atoms: _531  and  _533
REMARK  220  A    between atoms: _533  and  _534
REMARK  221  A    between atoms: _533  and  _536
REMARK  222  A    between atoms: _536  and  _537
REMARK  223  A    between atoms: _542  and  _544
REMARK  224  A    between atoms: _544  and  _545
REMARK  225  A    between atoms: _544  and  _547
REMARK  226  A    between atoms: _547  and  _548
REMARK  227  A    between atoms: _558  and  _560
REMARK  228  A    between atoms: _560  and  _561
REMARK  229  A    between atoms: _560  and  _563
REMARK  230  A    between atoms: _566  and  _568
REMARK  231  A    between atoms: _568  and  _569
REMARK  232  A    between atoms: _568  and  _571
REMARK  233  A    between atoms: _571  and  _572
REMARK  234  A    between atoms: _575  and  _577
REMARK  235  A    between atoms: _577  and  _578
REMARK  236  A    between atoms: _577  and  _580
REMARK  237  A    between atoms: _580  and  _581
REMARK  238  A    between atoms: _581  and  _582
REMARK  239  A    between atoms: _584  and  _586
REMARK  240  A    between atoms: _586  and  _587
REMARK  241  A    between atoms: _586  and  _589
REMARK  242  A    between atoms: _589  and  _590
REMARK  243  A    between atoms: _593  and  _595
REMARK  244  A    between atoms: _595  and  _596
REMARK  245  A    between atoms: _595  and  _598
REMARK  246  A    between atoms: _598  and  _599
REMARK  247  A    between atoms: _602  and  _604
REMARK  248  A    between atoms: _604  and  _605
REMARK  249  A    between atoms: _607  and  _609
REMARK  250  A    between atoms: _609  and  _610
REMARK  251  A    between atoms: _609  and  _612
REMARK  252  A    between atoms: _612  and  _613
REMARK  253  A    between atoms: _615  and  _617
REMARK  254  A    between atoms: _617  and  _618
REMARK  255  A    between atoms: _617  and  _620
REMARK  256  A    between atoms: _620  and  _621
REMARK  257  A    between atoms: _631  and  _633
REMARK  258  A    between atoms: _633  and  _634
REMARK  259  A    between atoms: _633  and  _636
REMARK  260  A    between atoms: _636  and  _637
REMARK  261  A    between atoms: _639  and  _641
REMARK  262  A    between atoms: _641  and  _642
REMARK  263  A    between atoms: _641  and  _644
REMARK  264  A    between atoms: _644  and  _645
REMARK  265  A    between atoms: _648  and  _650
REMARK  266  A    between atoms: _650  and  _651
REMARK  267  A    between atoms: _654  and  _656
REMARK  268  A    between atoms: _656  and  _657
REMARK  269  A    between atoms: _656  and  _659
REMARK  270  A    between atoms: _659  and  _660
REMARK  271  A    between atoms: _662  and  _664
REMARK  272  A    between atoms: _664  and  _665
REMARK  273  A    between atoms: _664  and  _667
REMARK  274  A    between atoms: _667  and  _668
REMARK  275  A    between atoms: _668  and  _669
REMARK  276  A    between atoms: _673  and  _674
REMARK  277  A    between atoms: _679  and  _681
REMARK  278  A    between atoms: _681  and  _682
REMARK  279  A    between atoms: _681  and  _684
REMARK  280  A    between atoms: _684  and  _685
REMARK  281  A    between atoms: _687  and  _689
REMARK  282  A    between atoms: _689  and  _690
REMARK  283  A    between atoms: _689  and  _692
REMARK  284  A    between atoms: _692  and  _693
REMARK  285  A    between atoms: _693  and  _694
REMARK  286  A    between atoms: _699  and  _701
REMARK  287  A    between atoms: _701  and  _702
REMARK  288  A    between atoms: _701  and  _704
REMARK  289  A    between atoms: _704  and  _705
REMARK  290  A    between atoms: _705  and  _706
REMARK  291  A    between atoms: _711  and  _713
REMARK  292  A    between atoms: _713  and  _714
REMARK  293  A    between atoms: _713  and  _716
REMARK  294  A    between atoms: _716  and  _717
REMARK  295  A    between atoms: _720  and  _722
REMARK  296  A    between atoms: _722  and  _723
REMARK  297  A    between atoms: _722  and  _725
REMARK  298  A    between atoms: _725  and  _726
REMARK  299  A    between atoms: _729  and  _731
REMARK  300  A    between atoms: _731  and  _732
REMARK  301  A    between atoms: _731  and  _734
REMARK  302  A    between atoms: _734  and  _735
REMARK  303  A    between atoms: _741  and  _743
REMARK  304  A    between atoms: _743  and  _744
REMARK  305  A    between atoms: _743  and  _746
REMARK  306  A    between atoms: _746  and  _747
REMARK  307  A    between atoms: _752  and  _753
REMARK  308  A    between atoms: _755  and  _757
REMARK  309  A    between atoms: _757  and  _758
REMARK  310  A    between atoms: _757  and  _760
REMARK  311  A    between atoms: _760  and  _761
REMARK  312  A    between atoms: _767  and  _769
REMARK  313  A    between atoms: _769  and  _770
REMARK  314  A    between atoms: _769  and  _772
REMARK  315  A    between atoms: _772  and  _773
REMARK  316  A    between atoms: _778  and  _780
REMARK  317  A    between atoms: _780  and  _781
REMARK  318  A    between atoms: _780  and  _783
REMARK  319  A    between atoms: _783  and  _784
REMARK  320  A    between atoms: _784  and  _785
REMARK                            x       y       z     vdW  Elec       q    Type
REMARK                         _______ _______ _______ _____ _____    ______ ____
ROOT
ATOM      1  O   HOH     1      18.904  52.259  27.814  0.00  0.00    +0.000 OA
ENDROOT
TORSDOF 0
REMARK  Name = ../refined-set-2016/3drf/3drf_pocket.pdb
REMARK  320 active torsions:
REMARK  status: ('A' for Active; 'I' for Inactive)
REMARK    1  A    between atoms: _1  and  _3
REMARK    2  A    between atoms: _3  and  _4
REMARK    3  A    between atoms: _3  and  _6
REMARK    4  A    between atoms: _6  and  _7
REMARK    5  A    between atoms: _12  and  _13
REMARK    6  A    between atoms: _15  and  _17
REMARK    7  A    between atoms: _17  and  _18
REMARK    8  A    between atoms: _17  and  _20
REMARK    9  A    between atoms: _20  and  _21
REMARK   10  A    between atoms: _21  and  _22
REMARK   11  A    between atoms: _27  and  _29
REMARK   12  A    between atoms: _29  and  _30
REMARK   13  A    between atoms: _29  and  _32
REMARK   14  A    between atoms: _32  and  _33
REMARK   15  A    between atoms: _35  and  _37
REMARK   16  A    between atoms: _37  and  _38
REMARK   17  A    between atoms: _37  and  _40
REMARK   18  A    between atoms: _40  and  _41
REMARK   19  A    between atoms: _44  and  _46
REMARK   20  A    between atoms: _46  and  _47
REMARK   21  A    between atoms: _46  and  _49
REMARK   22  A    between atoms: _49  and  _50
REMARK   23  A    between atoms: _52  and  _54
REMARK   24  A    between atoms: _54  and  _55
REMARK   25  A    between atoms: _54  and  _57
REMARK   26  A    between atoms: _57  and  _58
REMARK   27  A    between atoms: _60  and  _62
REMARK   28  A    between atoms: _62  and  _63
REMARK   29  A    between atoms: _65  and  _67
REMARK   30  A    between atoms: _67  and  _68
REMARK   31  A    between atoms: _67  and  _70
REMARK   32  A    between atoms: _70  and  _71
REMARK   33  A    between atoms: _73  and  _75
REMARK   34  A    between atoms: _75  and  _76
REMARK   35  A    between atoms: _75  and  _78
REMARK   36  A    between atoms: _78  and  _79
REMARK   37  A    between atoms: _84  and  _86
REMARK   38  A    between atoms: _86  and  _87
REMARK   39  A    between atoms: _86  and  _89
REMARK   40  A    between atoms: _89  and  _90
REMARK   41  A    between atoms: _93  and  _95
REMARK   42  A    between atoms: _95  and  _96
REMARK   43  A    between atoms: _99  and  _101
REMARK   44  A    between atoms: _101  and  _102
REMARK   45  A    between atoms: _101  and  _104
REMARK   46  A    between atoms: _104  and  _105
REMARK   47  A    between atoms: _108  and  _110
REMARK   48  A    between atoms: _110  and  _111
REMARK   49  A    between atoms: _110  and  _113
REMARK   50  A    between atoms: _113  and  _114
REMARK   51  A    between atoms: _120  and  _122
REMARK   52  A    between atoms: _122  and  _123
REMARK   53  A    between atoms: _126  and  _128
REMARK   54  A    between atoms: _128  and  _129
REMARK   55  A    between atoms: _128  and  _131
REMARK   56  A    between atoms: _131  and  _132
REMARK   57  A    between atoms: _135  and  _137
REMARK   58  A    between atoms: _137  and  _138
REMARK   59  A    between atoms: _140  and  _142
REMARK   60  A    between atoms: _142  and  _143
REMARK   61  A    between atoms: _142  and  _145
REMARK   62  A    between atoms: _145  and  _146
REMARK   63  A    between atoms: _146  and  _147
REMARK   64  A    between atoms: _152  and  _154
REMARK   65  A    between atoms: _154  and  _155
REMARK   66  A    between atoms: _157  and  _159
REMARK   67  A    between atoms: _159  and  _160
REMARK   68  A    between atoms: _159  and  _162
REMARK   69  A    between atoms: _162  and  _163
REMARK   70  A    between atoms: _166  and  _168
REMARK   71  A    between atoms: _168  and  _169
REMARK   72  A    between atoms: _168  and  _171
REMARK   73  A    between atoms: _171  and  _172
REMARK   74  A    between atoms: _178  and  _180
REMARK   75  A    between atoms: _180  and  _181
REMARK   76  A    between atoms: _180  and  _183
REMARK   77  A    between atoms: _183  and  _184
REMARK   78  A    between atoms: _187  and  _189
REMARK   79  A    between atoms: _189  and  _190
REMARK   80  A    between atoms: _189  and  _192
REMARK   81  A    between atoms: _192  and  _193
REMARK   82  A    between atoms: _199  and  _201
REMARK   83  A    between atoms: _201  and  _202
REMARK   84  A    between atoms: _201  and  _204
REMARK   85  A    between atoms: _204  and  _205
REMARK   86  A    between atoms: _211  and  _213
REMARK   87  A    between atoms: _213  and  _214
REMARK   88  A    between atoms: _213  and  _216
REMARK   89  A    between atoms: _216  and  _217
REMARK   90  A    between atoms: _220  and  _222
REMARK   91  A    between atoms: _222  and  _223
REMARK   92  A    between atoms: _222  and  _225
REMARK   93  A    between atoms: _225  and  _226
REMARK   94  A    between atoms: _229  and  _231
REMARK   95  A    between atoms: _231  and  _232
REMARK   96  A    between atoms: _231  and  _234
REMARK   97  A    between atoms: _234  and  _235
REMARK   98  A    between atoms: _235  and  _236
REMARK   99  A    between atoms: _236  and  _237
REMARK  100  A    between atoms: _246  and  _248
REMARK  101  A    between atoms: _248  and  _249
REMARK  102  A    between atoms: _248  and  _251
REMARK  103  A    between atoms: _251  and  _252
REMARK  104  A    between atoms: _255  and  _257
REMARK  105  A    between atoms: _257  and  _258
REMARK  106  A    between atoms: _257  and  _260
REMARK  107  A    between atoms: _260  and  _261
REMARK  108  A    between atoms: _263  and  _265
REMARK  109  A    between atoms: _265  and  _266
REMARK  110  A    between atoms: _265  and  _268
REMARK  111  A    between atoms: _268  and  _269
REMARK  112  A    between atoms: _269  and  _270
REMARK  113  A    between atoms: _275  and  _277
REMARK  114  A    between atoms: _277  and  _278
REMARK  115  A    between atoms: _277  and  _280
REMARK  116  A    between atoms: _280  and  _281
REMARK  117  A    between atoms: _283  and  _285
REMARK  118  A    between atoms: _285  and  _286
REMARK  119  A    between atoms: _288  and  _290
REMARK  120  A    between atoms: _290  and  _291
REMARK  121  A    between atoms: _290  and  _293
REMARK  122  A    between atoms: _293  and  _294
REMARK  123  A    between atoms: _299  and  _301
REMARK  124  A    between atoms: _301  and  _302
REMARK  125  A    between atoms: _304  and  _306
REMARK  126  A    between atoms: _306  and  _307
REMARK  127  A    between atoms: _306  and  _309
REMARK  128  A    between atoms: _309  and  _310
REMARK  129  A    between atoms: _315  and  _316
REMARK  130  A    between atoms: _318  and  _320
REMARK  131  A    between atoms: _320  and  _321
REMARK  132  A    between atoms: _320  and  _323
REMARK  133  A    between atoms: _323  and  _324
REMARK  134  A    between atoms: _330  and  _332
REMARK  135  A    between atoms: _332  and  _333
REMARK  136  A    between atoms: _332  and  _335
REMARK  137  A    between atoms: _335  and  _336
REMARK  138  A    between atoms: _339  and  _341
REMARK  139  A    between atoms: _341  and  _342
REMARK  140  A    between atoms: _341  and  _344
REMARK  141  A    between atoms: _344  and  _345
REMARK  142  A    between atoms: _345  and  _346
REMARK  143  A    between atoms: _349  and  _351
REMARK  144  A    between atoms: _351  and  _352
REMARK  145  A    between atoms: _351  and  _354
REMARK  146  A    between atoms: _354  and  _355
REMARK  147  A    between atoms: _358  and  _360
REMARK  148  A    between atoms: _360  and  _361
REMARK  149  A    between atoms: _360  and  _363
REMARK  150  A    between atoms: _363  and  _364
REMARK  151  A    between atoms: _367  and  _369
REMARK  152  A    between atoms: _369  and  _370
REMARK  153  A    between atoms: _372  and  _374
REMARK  154  A    between atoms: _374  and  _375
REMARK  155  A    between atoms: _374  and  _377
REMARK  156  A    between atoms: _380  and  _382
REMARK  157  A    between atoms: _382  and  _383
REMARK  158  A    between atoms: _382  and  _385
REMARK  159  A    between atoms: _385  and  _386
REMARK  160  A    between atoms: _388  and  _390
REMARK  161  A    between atoms: _390  and  _391
REMARK  162  A    between atoms: _390  and  _393
REMARK  163  A    between atoms: _393  and  _394
REMARK  164  A    between atoms: _394  and  _395
REMARK  165  A    between atoms: _397  and  _399
REMARK  166  A    between atoms: _399  and  _400
REMARK  167  A    between atoms: _399  and  _402
REMARK  168  A    between atoms: _402  and  _403
REMARK  169  A    between atoms: _408  and  _409
REMARK  170  A    between atoms: _411  and  _413
REMARK  171  A    between atoms: _413  and  _414
REMARK  172  A    between atoms: _413  and  _416
REMARK  173  A    between atoms: _416  and  _417
REMARK  174  A    between atoms: _420  and  _422
REMARK  175  A    between atoms: _422  and  _423
REMARK  176  A    between atoms: _422  and  _425
REMARK  177  A    between atoms: _425  and  _426
REMARK  178  A    between atoms: _428  and  _430
REMARK  179  A    between atoms: _430  and  _431
REMARK  180  A    between atoms: _430  and  _433
REMARK  181  A    between atoms: _433  and  _434
REMARK  182  A    between atoms: _437  and  _439
REMARK  183  A    between atoms: _439  and  _440
REMARK  184  A    between atoms: _439  and  _442
REMARK  185  A    between atoms: _442  and  _443
REMARK  186  A    between atoms: _448  and  _449
REMARK  187  A    between atoms: _451  and  _453
REMARK  188  A    between atoms: _453  and  _454
REMARK  189  A    between atoms: _453  and  _456
REMARK  190  A    between atoms: _456  and  _457
REMARK  191  A    between atoms: _459  and  _461
REMARK  192  A    between atoms: _461  and  _462
REMARK  193  A    between atoms: _461  and  _464
REMARK  194  A    between atoms: _464  and  _465
REMARK  195  A    between atoms: _471  and  _473
REMARK  196  A    between atoms: _473  and  _474
REMARK  197  A    between atoms: _473  and  _476
REMARK  198  A    between atoms: _476  and  _477
REMARK  199  A    between atoms: _477  and  _478
REMARK  200  A    between atoms: _478  and  _479
REMARK  201  A    between atoms: _488  and  _490
REMARK  202  A    between atoms: _490  and  _491
REMARK  203  A    between atoms: _490  and  _493
REMARK  204  A    between atoms: _496  and  _498
REMARK  205  A    between atoms: _498  and  _499
REMARK  206  A    between atoms: _501  and  _503
REMARK  207  A    between atoms: _503  and  _504
REMARK  208  A    between atoms: _503  and  _506
REMARK  209  A    between atoms: _506  and  _507
REMARK  210  A    between atoms: _510  and  _512
REMARK  211  A    between atoms: _512  and  _513
REMARK  212  A    between atoms: _512  and  _515
REMARK  213  A    between atoms: _515  and  _516
REMARK  214  A    between atoms: _516  and  _517
REMARK  215  A    between atoms: _519  and  _521
REMARK  216  A    between atoms: _521  and  _522
REMARK  217  A    between atoms: _521  and  _524
REMARK  218  A    between atoms: _524  and  _525
REMARK  219  A    between atoms: _531  and  _533
REMARK  220  A    between atoms: _533  and  _534
REMARK  221  A    between atoms: _533  and  _536
REMARK  222  A    between atoms: _536  and  _537
REMARK  223  A    between atoms: _542  and  _544
REMARK  224  A    between atoms: _544  and  _545
REMARK  225  A    between atoms: _544  and  _547
REMARK  226  A    between atoms: _547  and  _548
REMARK  227  A    between atoms: _558  and  _560
REMARK  228  A    between atoms: _560  and  _561
REMARK  229  A    between atoms: _560  and  _563
REMARK  230  A    between atoms: _566  and  _568
REMARK  231  A    between atoms: _568  and  _569
REMARK  232  A    between atoms: _568  and  _571
REMARK  233  A    between atoms: _571  and  _572
REMARK  234  A    between atoms: _575  and  _577
REMARK  235  A    between atoms: _577  and  _578
REMARK  236  A    between atoms: _577  and  _580
REMARK  237  A    between atoms: _580  and  _581
REMARK  238  A    between atoms: _581  and  _582
REMARK  239  A    between atoms: _584  and  _586
REMARK  240  A    between atoms: _586  and  _587
REMARK  241  A    between atoms: _586  and  _589
REMARK  242  A    between atoms: _589  and  _590
REMARK  243  A    between atoms: _593  and  _595
REMARK  244  A    between atoms: _595  and  _596
REMARK  245  A    between atoms: _595  and  _598
REMARK  246  A    between atoms: _598  and  _599
REMARK  247  A    between atoms: _602  and  _604
REMARK  248  A    between atoms: _604  and  _605
REMARK  249  A    between atoms: _607  and  _609
REMARK  250  A    between atoms: _609  and  _610
REMARK  251  A    between atoms: _609  and  _612
REMARK  252  A    between atoms: _612  and  _613
REMARK  253  A    between atoms: _615  and  _617
REMARK  254  A    between atoms: _617  and  _618
REMARK  255  A    between atoms: _617  and  _620
REMARK  256  A    between atoms: _620  and  _621
REMARK  257  A    between atoms: _631  and  _633
REMARK  258  A    between atoms: _633  and  _634
REMARK  259  A    between atoms: _633  and  _636
REMARK  260  A    between atoms: _636  and  _637
REMARK  261  A    between atoms: _639  and  _641
REMARK  262  A    between atoms: _641  and  _642
REMARK  263  A    between atoms: _641  and  _644
REMARK  264  A    between atoms: _644  and  _645
REMARK  265  A    between atoms: _648  and  _650
REMARK  266  A    between atoms: _650  and  _651
REMARK  267  A    between atoms: _654  and  _656
REMARK  268  A    between atoms: _656  and  _657
REMARK  269  A    between atoms: _656  and  _659
REMARK  270  A    between atoms: _659  and  _660
REMARK  271  A    between atoms: _662  and  _664
REMARK  272  A    between atoms: _664  and  _665
REMARK  273  A    between atoms: _664  and  _667
REMARK  274  A    between atoms: _667  and  _668
REMARK  275  A    between atoms: _668  and  _669
REMARK  276  A    between atoms: _673  and  _674
REMARK  277  A    between atoms: _679  and  _681
REMARK  278  A    between atoms: _681  and  _682
REMARK  279  A    between atoms: _681  and  _684
REMARK  280  A    between atoms: _684  and  _685
REMARK  281  A    between atoms: _687  and  _689
REMARK  282  A    between atoms: _689  and  _690
REMARK  283  A    between atoms: _689  and  _692
REMARK  284  A    between atoms: _692  and  _693
REMARK  285  A    between atoms: _693  and  _694
REMARK  286  A    between atoms: _699  and  _701
REMARK  287  A    between atoms: _701  and  _702
REMARK  288  A    between atoms: _701  and  _704
REMARK  289  A    between atoms: _704  and  _705
REMARK  290  A    between atoms: _705  and  _706
REMARK  291  A    between atoms: _711  and  _713
REMARK  292  A    between atoms: _713  and  _714
REMARK  293  A    between atoms: _713  and  _716
REMARK  294  A    between atoms: _716  and  _717
REMARK  295  A    between atoms: _720  and  _722
REMARK  296  A    between atoms: _722  and  _723
REMARK  297  A    between atoms: _722  and  _725
REMARK  298  A    between atoms: _725  and  _726
REMARK  299  A    between atoms: _729  and  _731
REMARK  300  A    between atoms: _731  and  _732
REMARK  301  A    between atoms: _731  and  _734
REMARK  302  A    between atoms: _734  and  _735
REMARK  303  A    between atoms: _741  and  _743
REMARK  304  A    between atoms: _743  and  _744
REMARK  305  A    between atoms: _743  and  _746
REMARK  306  A    between atoms: _746  and  _747
REMARK  307  A    between atoms: _752  and  _753
REMARK  308  A    between atoms: _755  and  _757
REMARK  309  A    between atoms: _757  and  _758
REMARK  310  A    between atoms: _757  and  _760
REMARK  311  A    between atoms: _760  and  _761
REMARK  312  A    between atoms: _767  and  _769
REMARK  313  A    between atoms: _769  and  _770
REMARK  314  A    between atoms: _769  and  _772
REMARK  315  A    between atoms: _772  and  _773
REMARK  316  A    between atoms: _778  and  _780
REMARK  317  A    between atoms: _780  and  _781
REMARK  318  A    between atoms: _780  and  _783
REMARK  319  A    between atoms: _783  and  _784
REMARK  320  A    between atoms: _784  and  _785
REMARK                            x       y       z     vdW  Elec       q    Type
REMARK                         _______ _______ _______ _____ _____    ______ ____
ROOT
ATOM      1  O   HOH     1      20.638  51.909  24.776  0.00  0.00    +0.000 OA
ENDROOT
TORSDOF 0
REMARK  Name = ../refined-set-2016/3drf/3drf_pocket.pdb
REMARK  320 active torsions:
REMARK  status: ('A' for Active; 'I' for Inactive)
REMARK    1  A    between atoms: _1  and  _3
REMARK    2  A    between atoms: _3  and  _4
REMARK    3  A    between atoms: _3  and  _6
REMARK    4  A    between atoms: _6  and  _7
REMARK    5  A    between atoms: _12  and  _13
REMARK    6  A    between atoms: _15  and  _17
REMARK    7  A    between atoms: _17  and  _18
REMARK    8  A    between atoms: _17  and  _20
REMARK    9  A    between atoms: _20  and  _21
REMARK   10  A    between atoms: _21  and  _22
REMARK   11  A    between atoms: _27  and  _29
REMARK   12  A    between atoms: _29  and  _30
REMARK   13  A    between atoms: _29  and  _32
REMARK   14  A    between atoms: _32  and  _33
REMARK   15  A    between atoms: _35  and  _37
REMARK   16  A    between atoms: _37  and  _38
REMARK   17  A    between atoms: _37  and  _40
REMARK   18  A    between atoms: _40  and  _41
REMARK   19  A    between atoms: _44  and  _46
REMARK   20  A    between atoms: _46  and  _47
REMARK   21  A    between atoms: _46  and  _49
REMARK   22  A    between atoms: _49  and  _50
REMARK   23  A    between atoms: _52  and  _54
REMARK   24  A    between atoms: _54  and  _55
REMARK   25  A    between atoms: _54  and  _57
REMARK   26  A    between atoms: _57  and  _58
REMARK   27  A    between atoms: _60  and  _62
REMARK   28  A    between atoms: _62  and  _63
REMARK   29  A    between atoms: _65  and  _67
REMARK   30  A    between atoms: _67  and  _68
REMARK   31  A    between atoms: _67  and  _70
REMARK   32  A    between atoms: _70  and  _71
REMARK   33  A    between atoms: _73  and  _75
REMARK   34  A    between atoms: _75  and  _76
REMARK   35  A    between atoms: _75  and  _78
REMARK   36  A    between atoms: _78  and  _79
REMARK   37  A    between atoms: _84  and  _86
REMARK   38  A    between atoms: _86  and  _87
REMARK   39  A    between atoms: _86  and  _89
REMARK   40  A    between atoms: _89  and  _90
REMARK   41  A    between atoms: _93  and  _95
REMARK   42  A    between atoms: _95  and  _96
REMARK   43  A    between atoms: _99  and  _101
REMARK   44  A    between atoms: _101  and  _102
REMARK   45  A    between atoms: _101  and  _104
REMARK   46  A    between atoms: _104  and  _105
REMARK   47  A    between atoms: _108  and  _110
REMARK   48  A    between atoms: _110  and  _111
REMARK   49  A    between atoms: _110  and  _113
REMARK   50  A    between atoms: _113  and  _114
REMARK   51  A    between atoms: _120  and  _122
REMARK   52  A    between atoms: _122  and  _123
REMARK   53  A    between atoms: _126  and  _128
REMARK   54  A    between atoms: _128  and  _129
REMARK   55  A    between atoms: _128  and  _131
REMARK   56  A    between atoms: _131  and  _132
REMARK   57  A    between atoms: _135  and  _137
REMARK   58  A    between atoms: _137  and  _138
REMARK   59  A    between atoms: _140  and  _142
REMARK   60  A    between atoms: _142  and  _143
REMARK   61  A    between atoms: _142  and  _145
REMARK   62  A    between atoms: _145  and  _146
REMARK   63  A    between atoms: _146  and  _147
REMARK   64  A    between atoms: _152  and  _154
REMARK   65  A    between atoms: _154  and  _155
REMARK   66  A    between atoms: _157  and  _159
REMARK   67  A    between atoms: _159  and  _160
REMARK   68  A    between atoms: _159  and  _162
REMARK   69  A    between atoms: _162  and  _163
REMARK   70  A    between atoms: _166  and  _168
REMARK   71  A    between atoms: _168  and  _169
REMARK   72  A    between atoms: _168  and  _171
REMARK   73  A    between atoms: _171  and  _172
REMARK   74  A    between atoms: _178  and  _180
REMARK   75  A    between atoms: _180  and  _181
REMARK   76  A    between atoms: _180  and  _183
REMARK   77  A    between atoms: _183  and  _184
REMARK   78  A    between atoms: _187  and  _189
REMARK   79  A    between atoms: _189  and  _190
REMARK   80  A    between atoms: _189  and  _192
REMARK   81  A    between atoms: _192  and  _193
REMARK   82  A    between atoms: _199  and  _201
REMARK   83  A    between atoms: _201  and  _202
REMARK   84  A    between atoms: _201  and  _204
REMARK   85  A    between atoms: _204  and  _205
REMARK   86  A    between atoms: _211  and  _213
REMARK   87  A    between atoms: _213  and  _214
REMARK   88  A    between atoms: _213  and  _216
REMARK   89  A    between atoms: _216  and  _217
REMARK   90  A    between atoms: _220  and  _222
REMARK   91  A    between atoms: _222  and  _223
REMARK   92  A    between atoms: _222  and  _225
REMARK   93  A    between atoms: _225  and  _226
REMARK   94  A    between atoms: _229  and  _231
REMARK   95  A    between atoms: _231  and  _232
REMARK   96  A    between atoms: _231  and  _234
REMARK   97  A    between atoms: _234  and  _235
REMARK   98  A    between atoms: _235  and  _236
REMARK   99  A    between atoms: _236  and  _237
REMARK  100  A    between atoms: _246  and  _248
REMARK  101  A    between atoms: _248  and  _249
REMARK  102  A    between atoms: _248  and  _251
REMARK  103  A    between atoms: _251  and  _252
REMARK  104  A    between atoms: _255  and  _257
REMARK  105  A    between atoms: _257  and  _258
REMARK  106  A    between atoms: _257  and  _260
REMARK  107  A    between atoms: _260  and  _261
REMARK  108  A    between atoms: _263  and  _265
REMARK  109  A    between atoms: _265  and  _266
REMARK  110  A    between atoms: _265  and  _268
REMARK  111  A    between atoms: _268  and  _269
REMARK  112  A    between atoms: _269  and  _270
REMARK  113  A    between atoms: _275  and  _277
REMARK  114  A    between atoms: _277  and  _278
REMARK  115  A    between atoms: _277  and  _280
REMARK  116  A    between atoms: _280  and  _281
REMARK  117  A    between atoms: _283  and  _285
REMARK  118  A    between atoms: _285  and  _286
REMARK  119  A    between atoms: _288  and  _290
REMARK  120  A    between atoms: _290  and  _291
REMARK  121  A    between atoms: _290  and  _293
REMARK  122  A    between atoms: _293  and  _294
REMARK  123  A    between atoms: _299  and  _301
REMARK  124  A    between atoms: _301  and  _302
REMARK  125  A    between atoms: _304  and  _306
REMARK  126  A    between atoms: _306  and  _307
REMARK  127  A    between atoms: _306  and  _309
REMARK  128  A    between atoms: _309  and  _310
REMARK  129  A    between atoms: _315  and  _316
REMARK  130  A    between atoms: _318  and  _320
REMARK  131  A    between atoms: _320  and  _321
REMARK  132  A    between atoms: _320  and  _323
REMARK  133  A    between atoms: _323  and  _324
REMARK  134  A    between atoms: _330  and  _332
REMARK  135  A    between atoms: _332  and  _333
REMARK  136  A    between atoms: _332  and  _335
REMARK  137  A    between atoms: _335  and  _336
REMARK  138  A    between atoms: _339  and  _341
REMARK  139  A    between atoms: _341  and  _342
REMARK  140  A    between atoms: _341  and  _344
REMARK  141  A    between atoms: _344  and  _345
REMARK  142  A    between atoms: _345  and  _346
REMARK  143  A    between atoms: _349  and  _351
REMARK  144  A    between atoms: _351  and  _352
REMARK  145  A    between atoms: _351  and  _354
REMARK  146  A    between atoms: _354  and  _355
REMARK  147  A    between atoms: _358  and  _360
REMARK  148  A    between atoms: _360  and  _361
REMARK  149  A    between atoms: _360  and  _363
REMARK  150  A    between atoms: _363  and  _364
REMARK  151  A    between atoms: _367  and  _369
REMARK  152  A    between atoms: _369  and  _370
REMARK  153  A    between atoms: _372  and  _374
REMARK  154  A    between atoms: _374  and  _375
REMARK  155  A    between atoms: _374  and  _377
REMARK  156  A    between atoms: _380  and  _382
REMARK  157  A    between atoms: _382  and  _383
REMARK  158  A    between atoms: _382  and  _385
REMARK  159  A    between atoms: _385  and  _386
REMARK  160  A    between atoms: _388  and  _390
REMARK  161  A    between atoms: _390  and  _391
REMARK  162  A    between atoms: _390  and  _393
REMARK  163  A    between atoms: _393  and  _394
REMARK  164  A    between atoms: _394  and  _395
REMARK  165  A    between atoms: _397  and  _399
REMARK  166  A    between atoms: _399  and  _400
REMARK  167  A    between atoms: _399  and  _402
REMARK  168  A    between atoms: _402  and  _403
REMARK  169  A    between atoms: _408  and  _409
REMARK  170  A    between atoms: _411  and  _413
REMARK  171  A    between atoms: _413  and  _414
REMARK  172  A    between atoms: _413  and  _416
REMARK  173  A    between atoms: _416  and  _417
REMARK  174  A    between atoms: _420  and  _422
REMARK  175  A    between atoms: _422  and  _423
REMARK  176  A    between atoms: _422  and  _425
REMARK  177  A    between atoms: _425  and  _426
REMARK  178  A    between atoms: _428  and  _430
REMARK  179  A    between atoms: _430  and  _431
REMARK  180  A    between atoms: _430  and  _433
REMARK  181  A    between atoms: _433  and  _434
REMARK  182  A    between atoms: _437  and  _439
REMARK  183  A    between atoms: _439  and  _440
REMARK  184  A    between atoms: _439  and  _442
REMARK  185  A    between atoms: _442  and  _443
REMARK  186  A    between atoms: _448  and  _449
REMARK  187  A    between atoms: _451  and  _453
REMARK  188  A    between atoms: _453  and  _454
REMARK  189  A    between atoms: _453  and  _456
REMARK  190  A    between atoms: _456  and  _457
REMARK  191  A    between atoms: _459  and  _461
REMARK  192  A    between atoms: _461  and  _462
REMARK  193  A    between atoms: _461  and  _464
REMARK  194  A    between atoms: _464  and  _465
REMARK  195  A    between atoms: _471  and  _473
REMARK  196  A    between atoms: _473  and  _474
REMARK  197  A    between atoms: _473  and  _476
REMARK  198  A    between atoms: _476  and  _477
REMARK  199  A    between atoms: _477  and  _478
REMARK  200  A    between atoms: _478  and  _479
REMARK  201  A    between atoms: _488  and  _490
REMARK  202  A    between atoms: _490  and  _491
REMARK  203  A    between atoms: _490  and  _493
REMARK  204  A    between atoms: _496  and  _498
REMARK  205  A    between atoms: _498  and  _499
REMARK  206  A    between atoms: _501  and  _503
REMARK  207  A    between atoms: _503  and  _504
REMARK  208  A    between atoms: _503  and  _506
REMARK  209  A    between atoms: _506  and  _507
REMARK  210  A    between atoms: _510  and  _512
REMARK  211  A    between atoms: _512  and  _513
REMARK  212  A    between atoms: _512  and  _515
REMARK  213  A    between atoms: _515  and  _516
REMARK  214  A    between atoms: _516  and  _517
REMARK  215  A    between atoms: _519  and  _521
REMARK  216  A    between atoms: _521  and  _522
REMARK  217  A    between atoms: _521  and  _524
REMARK  218  A    between atoms: _524  and  _525
REMARK  219  A    between atoms: _531  and  _533
REMARK  220  A    between atoms: _533  and  _534
REMARK  221  A    between atoms: _533  and  _536
REMARK  222  A    between atoms: _536  and  _537
REMARK  223  A    between atoms: _542  and  _544
REMARK  224  A    between atoms: _544  and  _545
REMARK  225  A    between atoms: _544  and  _547
REMARK  226  A    between atoms: _547  and  _548
REMARK  227  A    between atoms: _558  and  _560
REMARK  228  A    between atoms: _560  and  _561
REMARK  229  A    between atoms: _560  and  _563
REMARK  230  A    between atoms: _566  and  _568
REMARK  231  A    between atoms: _568  and  _569
REMARK  232  A    between atoms: _568  and  _571
REMARK  233  A    between atoms: _571  and  _572
REMARK  234  A    between atoms: _575  and  _577
REMARK  235  A    between atoms: _577  and  _578
REMARK  236  A    between atoms: _577  and  _580
REMARK  237  A    between atoms: _580  and  _581
REMARK  238  A    between atoms: _581  and  _582
REMARK  239  A    between atoms: _584  and  _586
REMARK  240  A    between atoms: _586  and  _587
REMARK  241  A    between atoms: _586  and  _589
REMARK  242  A    between atoms: _589  and  _590
REMARK  243  A    between atoms: _593  and  _595
REMARK  244  A    between atoms: _595  and  _596
REMARK  245  A    between atoms: _595  and  _598
REMARK  246  A    between atoms: _598  and  _599
REMARK  247  A    between atoms: _602  and  _604
REMARK  248  A    between atoms: _604  and  _605
REMARK  249  A    between atoms: _607  and  _609
REMARK  250  A    between atoms: _609  and  _610
REMARK  251  A    between atoms: _609  and  _612
REMARK  252  A    between atoms: _612  and  _613
REMARK  253  A    between atoms: _615  and  _617
REMARK  254  A    between atoms: _617  and  _618
REMARK  255  A    between atoms: _617  and  _620
REMARK  256  A    between atoms: _620  and  _621
REMARK  257  A    between atoms: _631  and  _633
REMARK  258  A    between atoms: _633  and  _634
REMARK  259  A    between atoms: _633  and  _636
REMARK  260  A    between atoms: _636  and  _637
REMARK  261  A    between atoms: _639  and  _641
REMARK  262  A    between atoms: _641  and  _642
REMARK  263  A    between atoms: _641  and  _644
REMARK  264  A    between atoms: _644  and  _645
REMARK  265  A    between atoms: _648  and  _650
REMARK  266  A    between atoms: _650  and  _651
REMARK  267  A    between atoms: _654  and  _656
REMARK  268  A    between atoms: _656  and  _657
REMARK  269  A    between atoms: _656  and  _659
REMARK  270  A    between atoms: _659  and  _660
REMARK  271  A    between atoms: _662  and  _664
REMARK  272  A    between atoms: _664  and  _665
REMARK  273  A    between atoms: _664  and  _667
REMARK  274  A    between atoms: _667  and  _668
REMARK  275  A    between atoms: _668  and  _669
REMARK  276  A    between atoms: _673  and  _674
REMARK  277  A    between atoms: _679  and  _681
REMARK  278  A    between atoms: _681  and  _682
REMARK  279  A    between atoms: _681  and  _684
REMARK  280  A    between atoms: _684  and  _685
REMARK  281  A    between atoms: _687  and  _689
REMARK  282  A    between atoms: _689  and  _690
REMARK  283  A    between atoms: _689  and  _692
REMARK  284  A    between atoms: _692  and  _693
REMARK  285  A    between atoms: _693  and  _694
REMARK  286  A    between atoms: _699  and  _701
REMARK  287  A    between atoms: _701  and  _702
REMARK  288  A    between atoms: _701  and  _704
REMARK  289  A    between atoms: _704  and  _705
REMARK  290  A    between atoms: _705  and  _706
REMARK  291  A    between atoms: _711  and  _713
REMARK  292  A    between atoms: _713  and  _714
REMARK  293  A    between atoms: _713  and  _716
REMARK  294  A    between atoms: _716  and  _717
REMARK  295  A    between atoms: _720  and  _722
REMARK  296  A    between atoms: _722  and  _723
REMARK  297  A    between atoms: _722  and  _725
REMARK  298  A    between atoms: _725  and  _726
REMARK  299  A    between atoms: _729  and  _731
REMARK  300  A    between atoms: _731  and  _732
REMARK  301  A    between atoms: _731  and  _734
REMARK  302  A    between atoms: _734  and  _735
REMARK  303  A    between atoms: _741  and  _743
REMARK  304  A    between atoms: _743  and  _744
REMARK  305  A    between atoms: _743  and  _746
REMARK  306  A    between atoms: _746  and  _747
REMARK  307  A    between atoms: _752  and  _753
REMARK  308  A    between atoms: _755  and  _757
REMARK  309  A    between atoms: _757  and  _758
REMARK  310  A    between atoms: _757  and  _760
REMARK  311  A    between atoms: _760  and  _761
REMARK  312  A    between atoms: _767  and  _769
REMARK  313  A    between atoms: _769  and  _770
REMARK  314  A    between atoms: _769  and  _772
REMARK  315  A    between atoms: _772  and  _773
REMARK  316  A    between atoms: _778  and  _780
REMARK  317  A    between atoms: _780  and  _781
REMARK  318  A    between atoms: _780  and  _783
REMARK  319  A    between atoms: _783  and  _784
REMARK  320  A    between atoms: _784  and  _785
REMARK                            x       y       z     vdW  Elec       q    Type
REMARK                         _______ _______ _______ _____ _____    ______ ____
ROOT
ATOM      1  O   HOH     1      -1.659  56.766  25.031  0.00  0.00    +0.000 OA
ENDROOT
TORSDOF 0
REMARK  Name = ../refined-set-2016/3drf/3drf_pocket.pdb
REMARK  320 active torsions:
REMARK  status: ('A' for Active; 'I' for Inactive)
REMARK    1  A    between atoms: _1  and  _3
REMARK    2  A    between atoms: _3  and  _4
REMARK    3  A    between atoms: _3  and  _6
REMARK    4  A    between atoms: _6  and  _7
REMARK    5  A    between atoms: _12  and  _13
REMARK    6  A    between atoms: _15  and  _17
REMARK    7  A    between atoms: _17  and  _18
REMARK    8  A    between atoms: _17  and  _20
REMARK    9  A    between atoms: _20  and  _21
REMARK   10  A    between atoms: _21  and  _22
REMARK   11  A    between atoms: _27  and  _29
REMARK   12  A    between atoms: _29  and  _30
REMARK   13  A    between atoms: _29  and  _32
REMARK   14  A    between atoms: _32  and  _33
REMARK   15  A    between atoms: _35  and  _37
REMARK   16  A    between atoms: _37  and  _38
REMARK   17  A    between atoms: _37  and  _40
REMARK   18  A    between atoms: _40  and  _41
REMARK   19  A    between atoms: _44  and  _46
REMARK   20  A    between atoms: _46  and  _47
REMARK   21  A    between atoms: _46  and  _49
REMARK   22  A    between atoms: _49  and  _50
REMARK   23  A    between atoms: _52  and  _54
REMARK   24  A    between atoms: _54  and  _55
REMARK   25  A    between atoms: _54  and  _57
REMARK   26  A    between atoms: _57  and  _58
REMARK   27  A    between atoms: _60  and  _62
REMARK   28  A    between atoms: _62  and  _63
REMARK   29  A    between atoms: _65  and  _67
REMARK   30  A    between atoms: _67  and  _68
REMARK   31  A    between atoms: _67  and  _70
REMARK   32  A    between atoms: _70  and  _71
REMARK   33  A    between atoms: _73  and  _75
REMARK   34  A    between atoms: _75  and  _76
REMARK   35  A    between atoms: _75  and  _78
REMARK   36  A    between atoms: _78  and  _79
REMARK   37  A    between atoms: _84  and  _86
REMARK   38  A    between atoms: _86  and  _87
REMARK   39  A    between atoms: _86  and  _89
REMARK   40  A    between atoms: _89  and  _90
REMARK   41  A    between atoms: _93  and  _95
REMARK   42  A    between atoms: _95  and  _96
REMARK   43  A    between atoms: _99  and  _101
REMARK   44  A    between atoms: _101  and  _102
REMARK   45  A    between atoms: _101  and  _104
REMARK   46  A    between atoms: _104  and  _105
REMARK   47  A    between atoms: _108  and  _110
REMARK   48  A    between atoms: _110  and  _111
REMARK   49  A    between atoms: _110  and  _113
REMARK   50  A    between atoms: _113  and  _114
REMARK   51  A    between atoms: _120  and  _122
REMARK   52  A    between atoms: _122  and  _123
REMARK   53  A    between atoms: _126  and  _128
REMARK   54  A    between atoms: _128  and  _129
REMARK   55  A    between atoms: _128  and  _131
REMARK   56  A    between atoms: _131  and  _132
REMARK   57  A    between atoms: _135  and  _137
REMARK   58  A    between atoms: _137  and  _138
REMARK   59  A    between atoms: _140  and  _142
REMARK   60  A    between atoms: _142  and  _143
REMARK   61  A    between atoms: _142  and  _145
REMARK   62  A    between atoms: _145  and  _146
REMARK   63  A    between atoms: _146  and  _147
REMARK   64  A    between atoms: _152  and  _154
REMARK   65  A    between atoms: _154  and  _155
REMARK   66  A    between atoms: _157  and  _159
REMARK   67  A    between atoms: _159  and  _160
REMARK   68  A    between atoms: _159  and  _162
REMARK   69  A    between atoms: _162  and  _163
REMARK   70  A    between atoms: _166  and  _168
REMARK   71  A    between atoms: _168  and  _169
REMARK   72  A    between atoms: _168  and  _171
REMARK   73  A    between atoms: _171  and  _172
REMARK   74  A    between atoms: _178  and  _180
REMARK   75  A    between atoms: _180  and  _181
REMARK   76  A    between atoms: _180  and  _183
REMARK   77  A    between atoms: _183  and  _184
REMARK   78  A    between atoms: _187  and  _189
REMARK   79  A    between atoms: _189  and  _190
REMARK   80  A    between atoms: _189  and  _192
REMARK   81  A    between atoms: _192  and  _193
REMARK   82  A    between atoms: _199  and  _201
REMARK   83  A    between atoms: _201  and  _202
REMARK   84  A    between atoms: _201  and  _204
REMARK   85  A    between atoms: _204  and  _205
REMARK   86  A    between atoms: _211  and  _213
REMARK   87  A    between atoms: _213  and  _214
REMARK   88  A    between atoms: _213  and  _216
REMARK   89  A    between atoms: _216  and  _217
REMARK   90  A    between atoms: _220  and  _222
REMARK   91  A    between atoms: _222  and  _223
REMARK   92  A    between atoms: _222  and  _225
REMARK   93  A    between atoms: _225  and  _226
REMARK   94  A    between atoms: _229  and  _231
REMARK   95  A    between atoms: _231  and  _232
REMARK   96  A    between atoms: _231  and  _234
REMARK   97  A    between atoms: _234  and  _235
REMARK   98  A    between atoms: _235  and  _236
REMARK   99  A    between atoms: _236  and  _237
REMARK  100  A    between atoms: _246  and  _248
REMARK  101  A    between atoms: _248  and  _249
REMARK  102  A    between atoms: _248  and  _251
REMARK  103  A    between atoms: _251  and  _252
REMARK  104  A    between atoms: _255  and  _257
REMARK  105  A    between atoms: _257  and  _258
REMARK  106  A    between atoms: _257  and  _260
REMARK  107  A    between atoms: _260  and  _261
REMARK  108  A    between atoms: _263  and  _265
REMARK  109  A    between atoms: _265  and  _266
REMARK  110  A    between atoms: _265  and  _268
REMARK  111  A    between atoms: _268  and  _269
REMARK  112  A    between atoms: _269  and  _270
REMARK  113  A    between atoms: _275  and  _277
REMARK  114  A    between atoms: _277  and  _278
REMARK  115  A    between atoms: _277  and  _280
REMARK  116  A    between atoms: _280  and  _281
REMARK  117  A    between atoms: _283  and  _285
REMARK  118  A    between atoms: _285  and  _286
REMARK  119  A    between atoms: _288  and  _290
REMARK  120  A    between atoms: _290  and  _291
REMARK  121  A    between atoms: _290  and  _293
REMARK  122  A    between atoms: _293  and  _294
REMARK  123  A    between atoms: _299  and  _301
REMARK  124  A    between atoms: _301  and  _302
REMARK  125  A    between atoms: _304  and  _306
REMARK  126  A    between atoms: _306  and  _307
REMARK  127  A    between atoms: _306  and  _309
REMARK  128  A    between atoms: _309  and  _310
REMARK  129  A    between atoms: _315  and  _316
REMARK  130  A    between atoms: _318  and  _320
REMARK  131  A    between atoms: _320  and  _321
REMARK  132  A    between atoms: _320  and  _323
REMARK  133  A    between atoms: _323  and  _324
REMARK  134  A    between atoms: _330  and  _332
REMARK  135  A    between atoms: _332  and  _333
REMARK  136  A    between atoms: _332  and  _335
REMARK  137  A    between atoms: _335  and  _336
REMARK  138  A    between atoms: _339  and  _341
REMARK  139  A    between atoms: _341  and  _342
REMARK  140  A    between atoms: _341  and  _344
REMARK  141  A    between atoms: _344  and  _345
REMARK  142  A    between atoms: _345  and  _346
REMARK  143  A    between atoms: _349  and  _351
REMARK  144  A    between atoms: _351  and  _352
REMARK  145  A    between atoms: _351  and  _354
REMARK  146  A    between atoms: _354  and  _355
REMARK  147  A    between atoms: _358  and  _360
REMARK  148  A    between atoms: _360  and  _361
REMARK  149  A    between atoms: _360  and  _363
REMARK  150  A    between atoms: _363  and  _364
REMARK  151  A    between atoms: _367  and  _369
REMARK  152  A    between atoms: _369  and  _370
REMARK  153  A    between atoms: _372  and  _374
REMARK  154  A    between atoms: _374  and  _375
REMARK  155  A    between atoms: _374  and  _377
REMARK  156  A    between atoms: _380  and  _382
REMARK  157  A    between atoms: _382  and  _383
REMARK  158  A    between atoms: _382  and  _385
REMARK  159  A    between atoms: _385  and  _386
REMARK  160  A    between atoms: _388  and  _390
REMARK  161  A    between atoms: _390  and  _391
REMARK  162  A    between atoms: _390  and  _393
REMARK  163  A    between atoms: _393  and  _394
REMARK  164  A    between atoms: _394  and  _395
REMARK  165  A    between atoms: _397  and  _399
REMARK  166  A    between atoms: _399  and  _400
REMARK  167  A    between atoms: _399  and  _402
REMARK  168  A    between atoms: _402  and  _403
REMARK  169  A    between atoms: _408  and  _409
REMARK  170  A    between atoms: _411  and  _413
REMARK  171  A    between atoms: _413  and  _414
REMARK  172  A    between atoms: _413  and  _416
REMARK  173  A    between atoms: _416  and  _417
REMARK  174  A    between atoms: _420  and  _422
REMARK  175  A    between atoms: _422  and  _423
REMARK  176  A    between atoms: _422  and  _425
REMARK  177  A    between atoms: _425  and  _426
REMARK  178  A    between atoms: _428  and  _430
REMARK  179  A    between atoms: _430  and  _431
REMARK  180  A    between atoms: _430  and  _433
REMARK  181  A    between atoms: _433  and  _434
REMARK  182  A    between atoms: _437  and  _439
REMARK  183  A    between atoms: _439  and  _440
REMARK  184  A    between atoms: _439  and  _442
REMARK  185  A    between atoms: _442  and  _443
REMARK  186  A    between atoms: _448  and  _449
REMARK  187  A    between atoms: _451  and  _453
REMARK  188  A    between atoms: _453  and  _454
REMARK  189  A    between atoms: _453  and  _456
REMARK  190  A    between atoms: _456  and  _457
REMARK  191  A    between atoms: _459  and  _461
REMARK  192  A    between atoms: _461  and  _462
REMARK  193  A    between atoms: _461  and  _464
REMARK  194  A    between atoms: _464  and  _465
REMARK  195  A    between atoms: _471  and  _473
REMARK  196  A    between atoms: _473  and  _474
REMARK  197  A    between atoms: _473  and  _476
REMARK  198  A    between atoms: _476  and  _477
REMARK  199  A    between atoms: _477  and  _478
REMARK  200  A    between atoms: _478  and  _479
REMARK  201  A    between atoms: _488  and  _490
REMARK  202  A    between atoms: _490  and  _491
REMARK  203  A    between atoms: _490  and  _493
REMARK  204  A    between atoms: _496  and  _498
REMARK  205  A    between atoms: _498  and  _499
REMARK  206  A    between atoms: _501  and  _503
REMARK  207  A    between atoms: _503  and  _504
REMARK  208  A    between atoms: _503  and  _506
REMARK  209  A    between atoms: _506  and  _507
REMARK  210  A    between atoms: _510  and  _512
REMARK  211  A    between atoms: _512  and  _513
REMARK  212  A    between atoms: _512  and  _515
REMARK  213  A    between atoms: _515  and  _516
REMARK  214  A    between atoms: _516  and  _517
REMARK  215  A    between atoms: _519  and  _521
REMARK  216  A    between atoms: _521  and  _522
REMARK  217  A    between atoms: _521  and  _524
REMARK  218  A    between atoms: _524  and  _525
REMARK  219  A    between atoms: _531  and  _533
REMARK  220  A    between atoms: _533  and  _534
REMARK  221  A    between atoms: _533  and  _536
REMARK  222  A    between atoms: _536  and  _537
REMARK  223  A    between atoms: _542  and  _544
REMARK  224  A    between atoms: _544  and  _545
REMARK  225  A    between atoms: _544  and  _547
REMARK  226  A    between atoms: _547  and  _548
REMARK  227  A    between atoms: _558  and  _560
REMARK  228  A    between atoms: _560  and  _561
REMARK  229  A    between atoms: _560  and  _563
REMARK  230  A    between atoms: _566  and  _568
REMARK  231  A    between atoms: _568  and  _569
REMARK  232  A    between atoms: _568  and  _571
REMARK  233  A    between atoms: _571  and  _572
REMARK  234  A    between atoms: _575  and  _577
REMARK  235  A    between atoms: _577  and  _578
REMARK  236  A    between atoms: _577  and  _580
REMARK  237  A    between atoms: _580  and  _581
REMARK  238  A    between atoms: _581  and  _582
REMARK  239  A    between atoms: _584  and  _586
REMARK  240  A    between atoms: _586  and  _587
REMARK  241  A    between atoms: _586  and  _589
REMARK  242  A    between atoms: _589  and  _590
REMARK  243  A    between atoms: _593  and  _595
REMARK  244  A    between atoms: _595  and  _596
REMARK  245  A    between atoms: _595  and  _598
REMARK  246  A    between atoms: _598  and  _599
REMARK  247  A    between atoms: _602  and  _604
REMARK  248  A    between atoms: _604  and  _605
REMARK  249  A    between atoms: _607  and  _609
REMARK  250  A    between atoms: _609  and  _610
REMARK  251  A    between atoms: _609  and  _612
REMARK  252  A    between atoms: _612  and  _613
REMARK  253  A    between atoms: _615  and  _617
REMARK  254  A    between atoms: _617  and  _618
REMARK  255  A    between atoms: _617  and  _620
REMARK  256  A    between atoms: _620  and  _621
REMARK  257  A    between atoms: _631  and  _633
REMARK  258  A    between atoms: _633  and  _634
REMARK  259  A    between atoms: _633  and  _636
REMARK  260  A    between atoms: _636  and  _637
REMARK  261  A    between atoms: _639  and  _641
REMARK  262  A    between atoms: _641  and  _642
REMARK  263  A    between atoms: _641  and  _644
REMARK  264  A    between atoms: _644  and  _645
REMARK  265  A    between atoms: _648  and  _650
REMARK  266  A    between atoms: _650  and  _651
REMARK  267  A    between atoms: _654  and  _656
REMARK  268  A    between atoms: _656  and  _657
REMARK  269  A    between atoms: _656  and  _659
REMARK  270  A    between atoms: _659  and  _660
REMARK  271  A    between atoms: _662  and  _664
REMARK  272  A    between atoms: _664  and  _665
REMARK  273  A    between atoms: _664  and  _667
REMARK  274  A    between atoms: _667  and  _668
REMARK  275  A    between atoms: _668  and  _669
REMARK  276  A    between atoms: _673  and  _674
REMARK  277  A    between atoms: _679  and  _681
REMARK  278  A    between atoms: _681  and  _682
REMARK  279  A    between atoms: _681  and  _684
REMARK  280  A    between atoms: _684  and  _685
REMARK  281  A    between atoms: _687  and  _689
REMARK  282  A    between atoms: _689  and  _690
REMARK  283  A    between atoms: _689  and  _692
REMARK  284  A    between atoms: _692  and  _693
REMARK  285  A    between atoms: _693  and  _694
REMARK  286  A    between atoms: _699  and  _701
REMARK  287  A    between atoms: _701  and  _702
REMARK  288  A    between atoms: _701  and  _704
REMARK  289  A    between atoms: _704  and  _705
REMARK  290  A    between atoms: _705  and  _706
REMARK  291  A    between atoms: _711  and  _713
REMARK  292  A    between atoms: _713  and  _714
REMARK  293  A    between atoms: _713  and  _716
REMARK  294  A    between atoms: _716  and  _717
REMARK  295  A    between atoms: _720  and  _722
REMARK  296  A    between atoms: _722  and  _723
REMARK  297  A    between atoms: _722  and  _725
REMARK  298  A    between atoms: _725  and  _726
REMARK  299  A    between atoms: _729  and  _731
REMARK  300  A    between atoms: _731  and  _732
REMARK  301  A    between atoms: _731  and  _734
REMARK  302  A    between atoms: _734  and  _735
REMARK  303  A    between atoms: _741  and  _743
REMARK  304  A    between atoms: _743  and  _744
REMARK  305  A    between atoms: _743  and  _746
REMARK  306  A    between atoms: _746  and  _747
REMARK  307  A    between atoms: _752  and  _753
REMARK  308  A    between atoms: _755  and  _757
REMARK  309  A    between atoms: _757  and  _758
REMARK  310  A    between atoms: _757  and  _760
REMARK  311  A    between atoms: _760  and  _761
REMARK  312  A    between atoms: _767  and  _769
REMARK  313  A    between atoms: _769  and  _770
REMARK  314  A    between atoms: _769  and  _772
REMARK  315  A    between atoms: _772  and  _773
REMARK  316  A    between atoms: _778  and  _780
REMARK  317  A    between atoms: _780  and  _781
REMARK  318  A    between atoms: _780  and  _783
REMARK  319  A    between atoms: _783  and  _784
REMARK  320  A    between atoms: _784  and  _785
REMARK                            x       y       z     vdW  Elec       q    Type
REMARK                         _______ _______ _______ _____ _____    ______ ____
ROOT
ATOM      1  O   HOH     1       7.233  60.026  23.988  0.00  0.00    +0.000 OA
ENDROOT
TORSDOF 0
REMARK  Name = ../refined-set-2016/3drf/3drf_pocket.pdb
REMARK  320 active torsions:
REMARK  status: ('A' for Active; 'I' for Inactive)
REMARK    1  A    between atoms: _1  and  _3
REMARK    2  A    between atoms: _3  and  _4
REMARK    3  A    between atoms: _3  and  _6
REMARK    4  A    between atoms: _6  and  _7
REMARK    5  A    between atoms: _12  and  _13
REMARK    6  A    between atoms: _15  and  _17
REMARK    7  A    between atoms: _17  and  _18
REMARK    8  A    between atoms: _17  and  _20
REMARK    9  A    between atoms: _20  and  _21
REMARK   10  A    between atoms: _21  and  _22
REMARK   11  A    between atoms: _27  and  _29
REMARK   12  A    between atoms: _29  and  _30
REMARK   13  A    between atoms: _29  and  _32
REMARK   14  A    between atoms: _32  and  _33
REMARK   15  A    between atoms: _35  and  _37
REMARK   16  A    between atoms: _37  and  _38
REMARK   17  A    between atoms: _37  and  _40
REMARK   18  A    between atoms: _40  and  _41
REMARK   19  A    between atoms: _44  and  _46
REMARK   20  A    between atoms: _46  and  _47
REMARK   21  A    between atoms: _46  and  _49
REMARK   22  A    between atoms: _49  and  _50
REMARK   23  A    between atoms: _52  and  _54
REMARK   24  A    between atoms: _54  and  _55
REMARK   25  A    between atoms: _54  and  _57
REMARK   26  A    between atoms: _57  and  _58
REMARK   27  A    between atoms: _60  and  _62
REMARK   28  A    between atoms: _62  and  _63
REMARK   29  A    between atoms: _65  and  _67
REMARK   30  A    between atoms: _67  and  _68
REMARK   31  A    between atoms: _67  and  _70
REMARK   32  A    between atoms: _70  and  _71
REMARK   33  A    between atoms: _73  and  _75
REMARK   34  A    between atoms: _75  and  _76
REMARK   35  A    between atoms: _75  and  _78
REMARK   36  A    between atoms: _78  and  _79
REMARK   37  A    between atoms: _84  and  _86
REMARK   38  A    between atoms: _86  and  _87
REMARK   39  A    between atoms: _86  and  _89
REMARK   40  A    between atoms: _89  and  _90
REMARK   41  A    between atoms: _93  and  _95
REMARK   42  A    between atoms: _95  and  _96
REMARK   43  A    between atoms: _99  and  _101
REMARK   44  A    between atoms: _101  and  _102
REMARK   45  A    between atoms: _101  and  _104
REMARK   46  A    between atoms: _104  and  _105
REMARK   47  A    between atoms: _108  and  _110
REMARK   48  A    between atoms: _110  and  _111
REMARK   49  A    between atoms: _110  and  _113
REMARK   50  A    between atoms: _113  and  _114
REMARK   51  A    between atoms: _120  and  _122
REMARK   52  A    between atoms: _122  and  _123
REMARK   53  A    between atoms: _126  and  _128
REMARK   54  A    between atoms: _128  and  _129
REMARK   55  A    between atoms: _128  and  _131
REMARK   56  A    between atoms: _131  and  _132
REMARK   57  A    between atoms: _135  and  _137
REMARK   58  A    between atoms: _137  and  _138
REMARK   59  A    between atoms: _140  and  _142
REMARK   60  A    between atoms: _142  and  _143
REMARK   61  A    between atoms: _142  and  _145
REMARK   62  A    between atoms: _145  and  _146
REMARK   63  A    between atoms: _146  and  _147
REMARK   64  A    between atoms: _152  and  _154
REMARK   65  A    between atoms: _154  and  _155
REMARK   66  A    between atoms: _157  and  _159
REMARK   67  A    between atoms: _159  and  _160
REMARK   68  A    between atoms: _159  and  _162
REMARK   69  A    between atoms: _162  and  _163
REMARK   70  A    between atoms: _166  and  _168
REMARK   71  A    between atoms: _168  and  _169
REMARK   72  A    between atoms: _168  and  _171
REMARK   73  A    between atoms: _171  and  _172
REMARK   74  A    between atoms: _178  and  _180
REMARK   75  A    between atoms: _180  and  _181
REMARK   76  A    between atoms: _180  and  _183
REMARK   77  A    between atoms: _183  and  _184
REMARK   78  A    between atoms: _187  and  _189
REMARK   79  A    between atoms: _189  and  _190
REMARK   80  A    between atoms: _189  and  _192
REMARK   81  A    between atoms: _192  and  _193
REMARK   82  A    between atoms: _199  and  _201
REMARK   83  A    between atoms: _201  and  _202
REMARK   84  A    between atoms: _201  and  _204
REMARK   85  A    between atoms: _204  and  _205
REMARK   86  A    between atoms: _211  and  _213
REMARK   87  A    between atoms: _213  and  _214
REMARK   88  A    between atoms: _213  and  _216
REMARK   89  A    between atoms: _216  and  _217
REMARK   90  A    between atoms: _220  and  _222
REMARK   91  A    between atoms: _222  and  _223
REMARK   92  A    between atoms: _222  and  _225
REMARK   93  A    between atoms: _225  and  _226
REMARK   94  A    between atoms: _229  and  _231
REMARK   95  A    between atoms: _231  and  _232
REMARK   96  A    between atoms: _231  and  _234
REMARK   97  A    between atoms: _234  and  _235
REMARK   98  A    between atoms: _235  and  _236
REMARK   99  A    between atoms: _236  and  _237
REMARK  100  A    between atoms: _246  and  _248
REMARK  101  A    between atoms: _248  and  _249
REMARK  102  A    between atoms: _248  and  _251
REMARK  103  A    between atoms: _251  and  _252
REMARK  104  A    between atoms: _255  and  _257
REMARK  105  A    between atoms: _257  and  _258
REMARK  106  A    between atoms: _257  and  _260
REMARK  107  A    between atoms: _260  and  _261
REMARK  108  A    between atoms: _263  and  _265
REMARK  109  A    between atoms: _265  and  _266
REMARK  110  A    between atoms: _265  and  _268
REMARK  111  A    between atoms: _268  and  _269
REMARK  112  A    between atoms: _269  and  _270
REMARK  113  A    between atoms: _275  and  _277
REMARK  114  A    between atoms: _277  and  _278
REMARK  115  A    between atoms: _277  and  _280
REMARK  116  A    between atoms: _280  and  _281
REMARK  117  A    between atoms: _283  and  _285
REMARK  118  A    between atoms: _285  and  _286
REMARK  119  A    between atoms: _288  and  _290
REMARK  120  A    between atoms: _290  and  _291
REMARK  121  A    between atoms: _290  and  _293
REMARK  122  A    between atoms: _293  and  _294
REMARK  123  A    between atoms: _299  and  _301
REMARK  124  A    between atoms: _301  and  _302
REMARK  125  A    between atoms: _304  and  _306
REMARK  126  A    between atoms: _306  and  _307
REMARK  127  A    between atoms: _306  and  _309
REMARK  128  A    between atoms: _309  and  _310
REMARK  129  A    between atoms: _315  and  _316
REMARK  130  A    between atoms: _318  and  _320
REMARK  131  A    between atoms: _320  and  _321
REMARK  132  A    between atoms: _320  and  _323
REMARK  133  A    between atoms: _323  and  _324
REMARK  134  A    between atoms: _330  and  _332
REMARK  135  A    between atoms: _332  and  _333
REMARK  136  A    between atoms: _332  and  _335
REMARK  137  A    between atoms: _335  and  _336
REMARK  138  A    between atoms: _339  and  _341
REMARK  139  A    between atoms: _341  and  _342
REMARK  140  A    between atoms: _341  and  _344
REMARK  141  A    between atoms: _344  and  _345
REMARK  142  A    between atoms: _345  and  _346
REMARK  143  A    between atoms: _349  and  _351
REMARK  144  A    between atoms: _351  and  _352
REMARK  145  A    between atoms: _351  and  _354
REMARK  146  A    between atoms: _354  and  _355
REMARK  147  A    between atoms: _358  and  _360
REMARK  148  A    between atoms: _360  and  _361
REMARK  149  A    between atoms: _360  and  _363
REMARK  150  A    between atoms: _363  and  _364
REMARK  151  A    between atoms: _367  and  _369
REMARK  152  A    between atoms: _369  and  _370
REMARK  153  A    between atoms: _372  and  _374
REMARK  154  A    between atoms: _374  and  _375
REMARK  155  A    between atoms: _374  and  _377
REMARK  156  A    between atoms: _380  and  _382
REMARK  157  A    between atoms: _382  and  _383
REMARK  158  A    between atoms: _382  and  _385
REMARK  159  A    between atoms: _385  and  _386
REMARK  160  A    between atoms: _388  and  _390
REMARK  161  A    between atoms: _390  and  _391
REMARK  162  A    between atoms: _390  and  _393
REMARK  163  A    between atoms: _393  and  _394
REMARK  164  A    between atoms: _394  and  _395
REMARK  165  A    between atoms: _397  and  _399
REMARK  166  A    between atoms: _399  and  _400
REMARK  167  A    between atoms: _399  and  _402
REMARK  168  A    between atoms: _402  and  _403
REMARK  169  A    between atoms: _408  and  _409
REMARK  170  A    between atoms: _411  and  _413
REMARK  171  A    between atoms: _413  and  _414
REMARK  172  A    between atoms: _413  and  _416
REMARK  173  A    between atoms: _416  and  _417
REMARK  174  A    between atoms: _420  and  _422
REMARK  175  A    between atoms: _422  and  _423
REMARK  176  A    between atoms: _422  and  _425
REMARK  177  A    between atoms: _425  and  _426
REMARK  178  A    between atoms: _428  and  _430
REMARK  179  A    between atoms: _430  and  _431
REMARK  180  A    between atoms: _430  and  _433
REMARK  181  A    between atoms: _433  and  _434
REMARK  182  A    between atoms: _437  and  _439
REMARK  183  A    between atoms: _439  and  _440
REMARK  184  A    between atoms: _439  and  _442
REMARK  185  A    between atoms: _442  and  _443
REMARK  186  A    between atoms: _448  and  _449
REMARK  187  A    between atoms: _451  and  _453
REMARK  188  A    between atoms: _453  and  _454
REMARK  189  A    between atoms: _453  and  _456
REMARK  190  A    between atoms: _456  and  _457
REMARK  191  A    between atoms: _459  and  _461
REMARK  192  A    between atoms: _461  and  _462
REMARK  193  A    between atoms: _461  and  _464
REMARK  194  A    between atoms: _464  and  _465
REMARK  195  A    between atoms: _471  and  _473
REMARK  196  A    between atoms: _473  and  _474
REMARK  197  A    between atoms: _473  and  _476
REMARK  198  A    between atoms: _476  and  _477
REMARK  199  A    between atoms: _477  and  _478
REMARK  200  A    between atoms: _478  and  _479
REMARK  201  A    between atoms: _488  and  _490
REMARK  202  A    between atoms: _490  and  _491
REMARK  203  A    between atoms: _490  and  _493
REMARK  204  A    between atoms: _496  and  _498
REMARK  205  A    between atoms: _498  and  _499
REMARK  206  A    between atoms: _501  and  _503
REMARK  207  A    between atoms: _503  and  _504
REMARK  208  A    between atoms: _503  and  _506
REMARK  209  A    between atoms: _506  and  _507
REMARK  210  A    between atoms: _510  and  _512
REMARK  211  A    between atoms: _512  and  _513
REMARK  212  A    between atoms: _512  and  _515
REMARK  213  A    between atoms: _515  and  _516
REMARK  214  A    between atoms: _516  and  _517
REMARK  215  A    between atoms: _519  and  _521
REMARK  216  A    between atoms: _521  and  _522
REMARK  217  A    between atoms: _521  and  _524
REMARK  218  A    between atoms: _524  and  _525
REMARK  219  A    between atoms: _531  and  _533
REMARK  220  A    between atoms: _533  and  _534
REMARK  221  A    between atoms: _533  and  _536
REMARK  222  A    between atoms: _536  and  _537
REMARK  223  A    between atoms: _542  and  _544
REMARK  224  A    between atoms: _544  and  _545
REMARK  225  A    between atoms: _544  and  _547
REMARK  226  A    between atoms: _547  and  _548
REMARK  227  A    between atoms: _558  and  _560
REMARK  228  A    between atoms: _560  and  _561
REMARK  229  A    between atoms: _560  and  _563
REMARK  230  A    between atoms: _566  and  _568
REMARK  231  A    between atoms: _568  and  _569
REMARK  232  A    between atoms: _568  and  _571
REMARK  233  A    between atoms: _571  and  _572
REMARK  234  A    between atoms: _575  and  _577
REMARK  235  A    between atoms: _577  and  _578
REMARK  236  A    between atoms: _577  and  _580
REMARK  237  A    between atoms: _580  and  _581
REMARK  238  A    between atoms: _581  and  _582
REMARK  239  A    between atoms: _584  and  _586
REMARK  240  A    between atoms: _586  and  _587
REMARK  241  A    between atoms: _586  and  _589
REMARK  242  A    between atoms: _589  and  _590
REMARK  243  A    between atoms: _593  and  _595
REMARK  244  A    between atoms: _595  and  _596
REMARK  245  A    between atoms: _595  and  _598
REMARK  246  A    between atoms: _598  and  _599
REMARK  247  A    between atoms: _602  and  _604
REMARK  248  A    between atoms: _604  and  _605
REMARK  249  A    between atoms: _607  and  _609
REMARK  250  A    between atoms: _609  and  _610
REMARK  251  A    between atoms: _609  and  _612
REMARK  252  A    between atoms: _612  and  _613
REMARK  253  A    between atoms: _615  and  _617
REMARK  254  A    between atoms: _617  and  _618
REMARK  255  A    between atoms: _617  and  _620
REMARK  256  A    between atoms: _620  and  _621
REMARK  257  A    between atoms: _631  and  _633
REMARK  258  A    between atoms: _633  and  _634
REMARK  259  A    between atoms: _633  and  _636
REMARK  260  A    between atoms: _636  and  _637
REMARK  261  A    between atoms: _639  and  _641
REMARK  262  A    between atoms: _641  and  _642
REMARK  263  A    between atoms: _641  and  _644
REMARK  264  A    between atoms: _644  and  _645
REMARK  265  A    between atoms: _648  and  _650
REMARK  266  A    between atoms: _650  and  _651
REMARK  267  A    between atoms: _654  and  _656
REMARK  268  A    between atoms: _656  and  _657
REMARK  269  A    between atoms: _656  and  _659
REMARK  270  A    between atoms: _659  and  _660
REMARK  271  A    between atoms: _662  and  _664
REMARK  272  A    between atoms: _664  and  _665
REMARK  273  A    between atoms: _664  and  _667
REMARK  274  A    between atoms: _667  and  _668
REMARK  275  A    between atoms: _668  and  _669
REMARK  276  A    between atoms: _673  and  _674
REMARK  277  A    between atoms: _679  and  _681
REMARK  278  A    between atoms: _681  and  _682
REMARK  279  A    between atoms: _681  and  _684
REMARK  280  A    between atoms: _684  and  _685
REMARK  281  A    between atoms: _687  and  _689
REMARK  282  A    between atoms: _689  and  _690
REMARK  283  A    between atoms: _689  and  _692
REMARK  284  A    between atoms: _692  and  _693
REMARK  285  A    between atoms: _693  and  _694
REMARK  286  A    between atoms: _699  and  _701
REMARK  287  A    between atoms: _701  and  _702
REMARK  288  A    between atoms: _701  and  _704
REMARK  289  A    between atoms: _704  and  _705
REMARK  290  A    between atoms: _705  and  _706
REMARK  291  A    between atoms: _711  and  _713
REMARK  292  A    between atoms: _713  and  _714
REMARK  293  A    between atoms: _713  and  _716
REMARK  294  A    between atoms: _716  and  _717
REMARK  295  A    between atoms: _720  and  _722
REMARK  296  A    between atoms: _722  and  _723
REMARK  297  A    between atoms: _722  and  _725
REMARK  298  A    between atoms: _725  and  _726
REMARK  299  A    between atoms: _729  and  _731
REMARK  300  A    between atoms: _731  and  _732
REMARK  301  A    between atoms: _731  and  _734
REMARK  302  A    between atoms: _734  and  _735
REMARK  303  A    between atoms: _741  and  _743
REMARK  304  A    between atoms: _743  and  _744
REMARK  305  A    between atoms: _743  and  _746
REMARK  306  A    between atoms: _746  and  _747
REMARK  307  A    between atoms: _752  and  _753
REMARK  308  A    between atoms: _755  and  _757
REMARK  309  A    between atoms: _757  and  _758
REMARK  310  A    between atoms: _757  and  _760
REMARK  311  A    between atoms: _760  and  _761
REMARK  312  A    between atoms: _767  and  _769
REMARK  313  A    between atoms: _769  and  _770
REMARK  314  A    between atoms: _769  and  _772
REMARK  315  A    between atoms: _772  and  _773
REMARK  316  A    between atoms: _778  and  _780
REMARK  317  A    between atoms: _780  and  _781
REMARK  318  A    between atoms: _780  and  _783
REMARK  319  A    between atoms: _783  and  _784
REMARK  320  A    between atoms: _784  and  _785
REMARK                            x       y       z     vdW  Elec       q    Type
REMARK                         _______ _______ _______ _____ _____    ______ ____
ROOT
ATOM      1  O   HOH     1      15.731  53.211  20.915  0.00  0.00    +0.000 OA
ENDROOT
TORSDOF 0
REMARK  Name = ../refined-set-2016/3drf/3drf_pocket.pdb
REMARK  320 active torsions:
REMARK  status: ('A' for Active; 'I' for Inactive)
REMARK    1  A    between atoms: _1  and  _3
REMARK    2  A    between atoms: _3  and  _4
REMARK    3  A    between atoms: _3  and  _6
REMARK    4  A    between atoms: _6  and  _7
REMARK    5  A    between atoms: _12  and  _13
REMARK    6  A    between atoms: _15  and  _17
REMARK    7  A    between atoms: _17  and  _18
REMARK    8  A    between atoms: _17  and  _20
REMARK    9  A    between atoms: _20  and  _21
REMARK   10  A    between atoms: _21  and  _22
REMARK   11  A    between atoms: _27  and  _29
REMARK   12  A    between atoms: _29  and  _30
REMARK   13  A    between atoms: _29  and  _32
REMARK   14  A    between atoms: _32  and  _33
REMARK   15  A    between atoms: _35  and  _37
REMARK   16  A    between atoms: _37  and  _38
REMARK   17  A    between atoms: _37  and  _40
REMARK   18  A    between atoms: _40  and  _41
REMARK   19  A    between atoms: _44  and  _46
REMARK   20  A    between atoms: _46  and  _47
REMARK   21  A    between atoms: _46  and  _49
REMARK   22  A    between atoms: _49  and  _50
REMARK   23  A    between atoms: _52  and  _54
REMARK   24  A    between atoms: _54  and  _55
REMARK   25  A    between atoms: _54  and  _57
REMARK   26  A    between atoms: _57  and  _58
REMARK   27  A    between atoms: _60  and  _62
REMARK   28  A    between atoms: _62  and  _63
REMARK   29  A    between atoms: _65  and  _67
REMARK   30  A    between atoms: _67  and  _68
REMARK   31  A    between atoms: _67  and  _70
REMARK   32  A    between atoms: _70  and  _71
REMARK   33  A    between atoms: _73  and  _75
REMARK   34  A    between atoms: _75  and  _76
REMARK   35  A    between atoms: _75  and  _78
REMARK   36  A    between atoms: _78  and  _79
REMARK   37  A    between atoms: _84  and  _86
REMARK   38  A    between atoms: _86  and  _87
REMARK   39  A    between atoms: _86  and  _89
REMARK   40  A    between atoms: _89  and  _90
REMARK   41  A    between atoms: _93  and  _95
REMARK   42  A    between atoms: _95  and  _96
REMARK   43  A    between atoms: _99  and  _101
REMARK   44  A    between atoms: _101  and  _102
REMARK   45  A    between atoms: _101  and  _104
REMARK   46  A    between atoms: _104  and  _105
REMARK   47  A    between atoms: _108  and  _110
REMARK   48  A    between atoms: _110  and  _111
REMARK   49  A    between atoms: _110  and  _113
REMARK   50  A    between atoms: _113  and  _114
REMARK   51  A    between atoms: _120  and  _122
REMARK   52  A    between atoms: _122  and  _123
REMARK   53  A    between atoms: _126  and  _128
REMARK   54  A    between atoms: _128  and  _129
REMARK   55  A    between atoms: _128  and  _131
REMARK   56  A    between atoms: _131  and  _132
REMARK   57  A    between atoms: _135  and  _137
REMARK   58  A    between atoms: _137  and  _138
REMARK   59  A    between atoms: _140  and  _142
REMARK   60  A    between atoms: _142  and  _143
REMARK   61  A    between atoms: _142  and  _145
REMARK   62  A    between atoms: _145  and  _146
REMARK   63  A    between atoms: _146  and  _147
REMARK   64  A    between atoms: _152  and  _154
REMARK   65  A    between atoms: _154  and  _155
REMARK   66  A    between atoms: _157  and  _159
REMARK   67  A    between atoms: _159  and  _160
REMARK   68  A    between atoms: _159  and  _162
REMARK   69  A    between atoms: _162  and  _163
REMARK   70  A    between atoms: _166  and  _168
REMARK   71  A    between atoms: _168  and  _169
REMARK   72  A    between atoms: _168  and  _171
REMARK   73  A    between atoms: _171  and  _172
REMARK   74  A    between atoms: _178  and  _180
REMARK   75  A    between atoms: _180  and  _181
REMARK   76  A    between atoms: _180  and  _183
REMARK   77  A    between atoms: _183  and  _184
REMARK   78  A    between atoms: _187  and  _189
REMARK   79  A    between atoms: _189  and  _190
REMARK   80  A    between atoms: _189  and  _192
REMARK   81  A    between atoms: _192  and  _193
REMARK   82  A    between atoms: _199  and  _201
REMARK   83  A    between atoms: _201  and  _202
REMARK   84  A    between atoms: _201  and  _204
REMARK   85  A    between atoms: _204  and  _205
REMARK   86  A    between atoms: _211  and  _213
REMARK   87  A    between atoms: _213  and  _214
REMARK   88  A    between atoms: _213  and  _216
REMARK   89  A    between atoms: _216  and  _217
REMARK   90  A    between atoms: _220  and  _222
REMARK   91  A    between atoms: _222  and  _223
REMARK   92  A    between atoms: _222  and  _225
REMARK   93  A    between atoms: _225  and  _226
REMARK   94  A    between atoms: _229  and  _231
REMARK   95  A    between atoms: _231  and  _232
REMARK   96  A    between atoms: _231  and  _234
REMARK   97  A    between atoms: _234  and  _235
REMARK   98  A    between atoms: _235  and  _236
REMARK   99  A    between atoms: _236  and  _237
REMARK  100  A    between atoms: _246  and  _248
REMARK  101  A    between atoms: _248  and  _249
REMARK  102  A    between atoms: _248  and  _251
REMARK  103  A    between atoms: _251  and  _252
REMARK  104  A    between atoms: _255  and  _257
REMARK  105  A    between atoms: _257  and  _258
REMARK  106  A    between atoms: _257  and  _260
REMARK  107  A    between atoms: _260  and  _261
REMARK  108  A    between atoms: _263  and  _265
REMARK  109  A    between atoms: _265  and  _266
REMARK  110  A    between atoms: _265  and  _268
REMARK  111  A    between atoms: _268  and  _269
REMARK  112  A    between atoms: _269  and  _270
REMARK  113  A    between atoms: _275  and  _277
REMARK  114  A    between atoms: _277  and  _278
REMARK  115  A    between atoms: _277  and  _280
REMARK  116  A    between atoms: _280  and  _281
REMARK  117  A    between atoms: _283  and  _285
REMARK  118  A    between atoms: _285  and  _286
REMARK  119  A    between atoms: _288  and  _290
REMARK  120  A    between atoms: _290  and  _291
REMARK  121  A    between atoms: _290  and  _293
REMARK  122  A    between atoms: _293  and  _294
REMARK  123  A    between atoms: _299  and  _301
REMARK  124  A    between atoms: _301  and  _302
REMARK  125  A    between atoms: _304  and  _306
REMARK  126  A    between atoms: _306  and  _307
REMARK  127  A    between atoms: _306  and  _309
REMARK  128  A    between atoms: _309  and  _310
REMARK  129  A    between atoms: _315  and  _316
REMARK  130  A    between atoms: _318  and  _320
REMARK  131  A    between atoms: _320  and  _321
REMARK  132  A    between atoms: _320  and  _323
REMARK  133  A    between atoms: _323  and  _324
REMARK  134  A    between atoms: _330  and  _332
REMARK  135  A    between atoms: _332  and  _333
REMARK  136  A    between atoms: _332  and  _335
REMARK  137  A    between atoms: _335  and  _336
REMARK  138  A    between atoms: _339  and  _341
REMARK  139  A    between atoms: _341  and  _342
REMARK  140  A    between atoms: _341  and  _344
REMARK  141  A    between atoms: _344  and  _345
REMARK  142  A    between atoms: _345  and  _346
REMARK  143  A    between atoms: _349  and  _351
REMARK  144  A    between atoms: _351  and  _352
REMARK  145  A    between atoms: _351  and  _354
REMARK  146  A    between atoms: _354  and  _355
REMARK  147  A    between atoms: _358  and  _360
REMARK  148  A    between atoms: _360  and  _361
REMARK  149  A    between atoms: _360  and  _363
REMARK  150  A    between atoms: _363  and  _364
REMARK  151  A    between atoms: _367  and  _369
REMARK  152  A    between atoms: _369  and  _370
REMARK  153  A    between atoms: _372  and  _374
REMARK  154  A    between atoms: _374  and  _375
REMARK  155  A    between atoms: _374  and  _377
REMARK  156  A    between atoms: _380  and  _382
REMARK  157  A    between atoms: _382  and  _383
REMARK  158  A    between atoms: _382  and  _385
REMARK  159  A    between atoms: _385  and  _386
REMARK  160  A    between atoms: _388  and  _390
REMARK  161  A    between atoms: _390  and  _391
REMARK  162  A    between atoms: _390  and  _393
REMARK  163  A    between atoms: _393  and  _394
REMARK  164  A    between atoms: _394  and  _395
REMARK  165  A    between atoms: _397  and  _399
REMARK  166  A    between atoms: _399  and  _400
REMARK  167  A    between atoms: _399  and  _402
REMARK  168  A    between atoms: _402  and  _403
REMARK  169  A    between atoms: _408  and  _409
REMARK  170  A    between atoms: _411  and  _413
REMARK  171  A    between atoms: _413  and  _414
REMARK  172  A    between atoms: _413  and  _416
REMARK  173  A    between atoms: _416  and  _417
REMARK  174  A    between atoms: _420  and  _422
REMARK  175  A    between atoms: _422  and  _423
REMARK  176  A    between atoms: _422  and  _425
REMARK  177  A    between atoms: _425  and  _426
REMARK  178  A    between atoms: _428  and  _430
REMARK  179  A    between atoms: _430  and  _431
REMARK  180  A    between atoms: _430  and  _433
REMARK  181  A    between atoms: _433  and  _434
REMARK  182  A    between atoms: _437  and  _439
REMARK  183  A    between atoms: _439  and  _440
REMARK  184  A    between atoms: _439  and  _442
REMARK  185  A    between atoms: _442  and  _443
REMARK  186  A    between atoms: _448  and  _449
REMARK  187  A    between atoms: _451  and  _453
REMARK  188  A    between atoms: _453  and  _454
REMARK  189  A    between atoms: _453  and  _456
REMARK  190  A    between atoms: _456  and  _457
REMARK  191  A    between atoms: _459  and  _461
REMARK  192  A    between atoms: _461  and  _462
REMARK  193  A    between atoms: _461  and  _464
REMARK  194  A    between atoms: _464  and  _465
REMARK  195  A    between atoms: _471  and  _473
REMARK  196  A    between atoms: _473  and  _474
REMARK  197  A    between atoms: _473  and  _476
REMARK  198  A    between atoms: _476  and  _477
REMARK  199  A    between atoms: _477  and  _478
REMARK  200  A    between atoms: _478  and  _479
REMARK  201  A    between atoms: _488  and  _490
REMARK  202  A    between atoms: _490  and  _491
REMARK  203  A    between atoms: _490  and  _493
REMARK  204  A    between atoms: _496  and  _498
REMARK  205  A    between atoms: _498  and  _499
REMARK  206  A    between atoms: _501  and  _503
REMARK  207  A    between atoms: _503  and  _504
REMARK  208  A    between atoms: _503  and  _506
REMARK  209  A    between atoms: _506  and  _507
REMARK  210  A    between atoms: _510  and  _512
REMARK  211  A    between atoms: _512  and  _513
REMARK  212  A    between atoms: _512  and  _515
REMARK  213  A    between atoms: _515  and  _516
REMARK  214  A    between atoms: _516  and  _517
REMARK  215  A    between atoms: _519  and  _521
REMARK  216  A    between atoms: _521  and  _522
REMARK  217  A    between atoms: _521  and  _524
REMARK  218  A    between atoms: _524  and  _525
REMARK  219  A    between atoms: _531  and  _533
REMARK  220  A    between atoms: _533  and  _534
REMARK  221  A    between atoms: _533  and  _536
REMARK  222  A    between atoms: _536  and  _537
REMARK  223  A    between atoms: _542  and  _544
REMARK  224  A    between atoms: _544  and  _545
REMARK  225  A    between atoms: _544  and  _547
REMARK  226  A    between atoms: _547  and  _548
REMARK  227  A    between atoms: _558  and  _560
REMARK  228  A    between atoms: _560  and  _561
REMARK  229  A    between atoms: _560  and  _563
REMARK  230  A    between atoms: _566  and  _568
REMARK  231  A    between atoms: _568  and  _569
REMARK  232  A    between atoms: _568  and  _571
REMARK  233  A    between atoms: _571  and  _572
REMARK  234  A    between atoms: _575  and  _577
REMARK  235  A    between atoms: _577  and  _578
REMARK  236  A    between atoms: _577  and  _580
REMARK  237  A    between atoms: _580  and  _581
REMARK  238  A    between atoms: _581  and  _582
REMARK  239  A    between atoms: _584  and  _586
REMARK  240  A    between atoms: _586  and  _587
REMARK  241  A    between atoms: _586  and  _589
REMARK  242  A    between atoms: _589  and  _590
REMARK  243  A    between atoms: _593  and  _595
REMARK  244  A    between atoms: _595  and  _596
REMARK  245  A    between atoms: _595  and  _598
REMARK  246  A    between atoms: _598  and  _599
REMARK  247  A    between atoms: _602  and  _604
REMARK  248  A    between atoms: _604  and  _605
REMARK  249  A    between atoms: _607  and  _609
REMARK  250  A    between atoms: _609  and  _610
REMARK  251  A    between atoms: _609  and  _612
REMARK  252  A    between atoms: _612  and  _613
REMARK  253  A    between atoms: _615  and  _617
REMARK  254  A    between atoms: _617  and  _618
REMARK  255  A    between atoms: _617  and  _620
REMARK  256  A    between atoms: _620  and  _621
REMARK  257  A    between atoms: _631  and  _633
REMARK  258  A    between atoms: _633  and  _634
REMARK  259  A    between atoms: _633  and  _636
REMARK  260  A    between atoms: _636  and  _637
REMARK  261  A    between atoms: _639  and  _641
REMARK  262  A    between atoms: _641  and  _642
REMARK  263  A    between atoms: _641  and  _644
REMARK  264  A    between atoms: _644  and  _645
REMARK  265  A    between atoms: _648  and  _650
REMARK  266  A    between atoms: _650  and  _651
REMARK  267  A    between atoms: _654  and  _656
REMARK  268  A    between atoms: _656  and  _657
REMARK  269  A    between atoms: _656  and  _659
REMARK  270  A    between atoms: _659  and  _660
REMARK  271  A    between atoms: _662  and  _664
REMARK  272  A    between atoms: _664  and  _665
REMARK  273  A    between atoms: _664  and  _667
REMARK  274  A    between atoms: _667  and  _668
REMARK  275  A    between atoms: _668  and  _669
REMARK  276  A    between atoms: _673  and  _674
REMARK  277  A    between atoms: _679  and  _681
REMARK  278  A    between atoms: _681  and  _682
REMARK  279  A    between atoms: _681  and  _684
REMARK  280  A    between atoms: _684  and  _685
REMARK  281  A    between atoms: _687  and  _689
REMARK  282  A    between atoms: _689  and  _690
REMARK  283  A    between atoms: _689  and  _692
REMARK  284  A    between atoms: _692  and  _693
REMARK  285  A    between atoms: _693  and  _694
REMARK  286  A    between atoms: _699  and  _701
REMARK  287  A    between atoms: _701  and  _702
REMARK  288  A    between atoms: _701  and  _704
REMARK  289  A    between atoms: _704  and  _705
REMARK  290  A    between atoms: _705  and  _706
REMARK  291  A    between atoms: _711  and  _713
REMARK  292  A    between atoms: _713  and  _714
REMARK  293  A    between atoms: _713  and  _716
REMARK  294  A    between atoms: _716  and  _717
REMARK  295  A    between atoms: _720  and  _722
REMARK  296  A    between atoms: _722  and  _723
REMARK  297  A    between atoms: _722  and  _725
REMARK  298  A    between atoms: _725  and  _726
REMARK  299  A    between atoms: _729  and  _731
REMARK  300  A    between atoms: _731  and  _732
REMARK  301  A    between atoms: _731  and  _734
REMARK  302  A    between atoms: _734  and  _735
REMARK  303  A    between atoms: _741  and  _743
REMARK  304  A    between atoms: _743  and  _744
REMARK  305  A    between atoms: _743  and  _746
REMARK  306  A    between atoms: _746  and  _747
REMARK  307  A    between atoms: _752  and  _753
REMARK  308  A    between atoms: _755  and  _757
REMARK  309  A    between atoms: _757  and  _758
REMARK  310  A    between atoms: _757  and  _760
REMARK  311  A    between atoms: _760  and  _761
REMARK  312  A    between atoms: _767  and  _769
REMARK  313  A    between atoms: _769  and  _770
REMARK  314  A    between atoms: _769  and  _772
REMARK  315  A    between atoms: _772  and  _773
REMARK  316  A    between atoms: _778  and  _780
REMARK  317  A    between atoms: _780  and  _781
REMARK  318  A    between atoms: _780  and  _783
REMARK  319  A    between atoms: _783  and  _784
REMARK  320  A    between atoms: _784  and  _785
REMARK                            x       y       z     vdW  Elec       q    Type
REMARK                         _______ _______ _______ _____ _____    ______ ____
ROOT
ATOM      1  O   HOH     1      -0.065  50.419  21.554  0.00  0.00    +0.000 OA
ENDROOT
TORSDOF 0
REMARK  Name = ../refined-set-2016/3drf/3drf_pocket.pdb
REMARK  320 active torsions:
REMARK  status: ('A' for Active; 'I' for Inactive)
REMARK    1  A    between atoms: _1  and  _3
REMARK    2  A    between atoms: _3  and  _4
REMARK    3  A    between atoms: _3  and  _6
REMARK    4  A    between atoms: _6  and  _7
REMARK    5  A    between atoms: _12  and  _13
REMARK    6  A    between atoms: _15  and  _17
REMARK    7  A    between atoms: _17  and  _18
REMARK    8  A    between atoms: _17  and  _20
REMARK    9  A    between atoms: _20  and  _21
REMARK   10  A    between atoms: _21  and  _22
REMARK   11  A    between atoms: _27  and  _29
REMARK   12  A    between atoms: _29  and  _30
REMARK   13  A    between atoms: _29  and  _32
REMARK   14  A    between atoms: _32  and  _33
REMARK   15  A    between atoms: _35  and  _37
REMARK   16  A    between atoms: _37  and  _38
REMARK   17  A    between atoms: _37  and  _40
REMARK   18  A    between atoms: _40  and  _41
REMARK   19  A    between atoms: _44  and  _46
REMARK   20  A    between atoms: _46  and  _47
REMARK   21  A    between atoms: _46  and  _49
REMARK   22  A    between atoms: _49  and  _50
REMARK   23  A    between atoms: _52  and  _54
REMARK   24  A    between atoms: _54  and  _55
REMARK   25  A    between atoms: _54  and  _57
REMARK   26  A    between atoms: _57  and  _58
REMARK   27  A    between atoms: _60  and  _62
REMARK   28  A    between atoms: _62  and  _63
REMARK   29  A    between atoms: _65  and  _67
REMARK   30  A    between atoms: _67  and  _68
REMARK   31  A    between atoms: _67  and  _70
REMARK   32  A    between atoms: _70  and  _71
REMARK   33  A    between atoms: _73  and  _75
REMARK   34  A    between atoms: _75  and  _76
REMARK   35  A    between atoms: _75  and  _78
REMARK   36  A    between atoms: _78  and  _79
REMARK   37  A    between atoms: _84  and  _86
REMARK   38  A    between atoms: _86  and  _87
REMARK   39  A    between atoms: _86  and  _89
REMARK   40  A    between atoms: _89  and  _90
REMARK   41  A    between atoms: _93  and  _95
REMARK   42  A    between atoms: _95  and  _96
REMARK   43  A    between atoms: _99  and  _101
REMARK   44  A    between atoms: _101  and  _102
REMARK   45  A    between atoms: _101  and  _104
REMARK   46  A    between atoms: _104  and  _105
REMARK   47  A    between atoms: _108  and  _110
REMARK   48  A    between atoms: _110  and  _111
REMARK   49  A    between atoms: _110  and  _113
REMARK   50  A    between atoms: _113  and  _114
REMARK   51  A    between atoms: _120  and  _122
REMARK   52  A    between atoms: _122  and  _123
REMARK   53  A    between atoms: _126  and  _128
REMARK   54  A    between atoms: _128  and  _129
REMARK   55  A    between atoms: _128  and  _131
REMARK   56  A    between atoms: _131  and  _132
REMARK   57  A    between atoms: _135  and  _137
REMARK   58  A    between atoms: _137  and  _138
REMARK   59  A    between atoms: _140  and  _142
REMARK   60  A    between atoms: _142  and  _143
REMARK   61  A    between atoms: _142  and  _145
REMARK   62  A    between atoms: _145  and  _146
REMARK   63  A    between atoms: _146  and  _147
REMARK   64  A    between atoms: _152  and  _154
REMARK   65  A    between atoms: _154  and  _155
REMARK   66  A    between atoms: _157  and  _159
REMARK   67  A    between atoms: _159  and  _160
REMARK   68  A    between atoms: _159  and  _162
REMARK   69  A    between atoms: _162  and  _163
REMARK   70  A    between atoms: _166  and  _168
REMARK   71  A    between atoms: _168  and  _169
REMARK   72  A    between atoms: _168  and  _171
REMARK   73  A    between atoms: _171  and  _172
REMARK   74  A    between atoms: _178  and  _180
REMARK   75  A    between atoms: _180  and  _181
REMARK   76  A    between atoms: _180  and  _183
REMARK   77  A    between atoms: _183  and  _184
REMARK   78  A    between atoms: _187  and  _189
REMARK   79  A    between atoms: _189  and  _190
REMARK   80  A    between atoms: _189  and  _192
REMARK   81  A    between atoms: _192  and  _193
REMARK   82  A    between atoms: _199  and  _201
REMARK   83  A    between atoms: _201  and  _202
REMARK   84  A    between atoms: _201  and  _204
REMARK   85  A    between atoms: _204  and  _205
REMARK   86  A    between atoms: _211  and  _213
REMARK   87  A    between atoms: _213  and  _214
REMARK   88  A    between atoms: _213  and  _216
REMARK   89  A    between atoms: _216  and  _217
REMARK   90  A    between atoms: _220  and  _222
REMARK   91  A    between atoms: _222  and  _223
REMARK   92  A    between atoms: _222  and  _225
REMARK   93  A    between atoms: _225  and  _226
REMARK   94  A    between atoms: _229  and  _231
REMARK   95  A    between atoms: _231  and  _232
REMARK   96  A    between atoms: _231  and  _234
REMARK   97  A    between atoms: _234  and  _235
REMARK   98  A    between atoms: _235  and  _236
REMARK   99  A    between atoms: _236  and  _237
REMARK  100  A    between atoms: _246  and  _248
REMARK  101  A    between atoms: _248  and  _249
REMARK  102  A    between atoms: _248  and  _251
REMARK  103  A    between atoms: _251  and  _252
REMARK  104  A    between atoms: _255  and  _257
REMARK  105  A    between atoms: _257  and  _258
REMARK  106  A    between atoms: _257  and  _260
REMARK  107  A    between atoms: _260  and  _261
REMARK  108  A    between atoms: _263  and  _265
REMARK  109  A    between atoms: _265  and  _266
REMARK  110  A    between atoms: _265  and  _268
REMARK  111  A    between atoms: _268  and  _269
REMARK  112  A    between atoms: _269  and  _270
REMARK  113  A    between atoms: _275  and  _277
REMARK  114  A    between atoms: _277  and  _278
REMARK  115  A    between atoms: _277  and  _280
REMARK  116  A    between atoms: _280  and  _281
REMARK  117  A    between atoms: _283  and  _285
REMARK  118  A    between atoms: _285  and  _286
REMARK  119  A    between atoms: _288  and  _290
REMARK  120  A    between atoms: _290  and  _291
REMARK  121  A    between atoms: _290  and  _293
REMARK  122  A    between atoms: _293  and  _294
REMARK  123  A    between atoms: _299  and  _301
REMARK  124  A    between atoms: _301  and  _302
REMARK  125  A    between atoms: _304  and  _306
REMARK  126  A    between atoms: _306  and  _307
REMARK  127  A    between atoms: _306  and  _309
REMARK  128  A    between atoms: _309  and  _310
REMARK  129  A    between atoms: _315  and  _316
REMARK  130  A    between atoms: _318  and  _320
REMARK  131  A    between atoms: _320  and  _321
REMARK  132  A    between atoms: _320  and  _323
REMARK  133  A    between atoms: _323  and  _324
REMARK  134  A    between atoms: _330  and  _332
REMARK  135  A    between atoms: _332  and  _333
REMARK  136  A    between atoms: _332  and  _335
REMARK  137  A    between atoms: _335  and  _336
REMARK  138  A    between atoms: _339  and  _341
REMARK  139  A    between atoms: _341  and  _342
REMARK  140  A    between atoms: _341  and  _344
REMARK  141  A    between atoms: _344  and  _345
REMARK  142  A    between atoms: _345  and  _346
REMARK  143  A    between atoms: _349  and  _351
REMARK  144  A    between atoms: _351  and  _352
REMARK  145  A    between atoms: _351  and  _354
REMARK  146  A    between atoms: _354  and  _355
REMARK  147  A    between atoms: _358  and  _360
REMARK  148  A    between atoms: _360  and  _361
REMARK  149  A    between atoms: _360  and  _363
REMARK  150  A    between atoms: _363  and  _364
REMARK  151  A    between atoms: _367  and  _369
REMARK  152  A    between atoms: _369  and  _370
REMARK  153  A    between atoms: _372  and  _374
REMARK  154  A    between atoms: _374  and  _375
REMARK  155  A    between atoms: _374  and  _377
REMARK  156  A    between atoms: _380  and  _382
REMARK  157  A    between atoms: _382  and  _383
REMARK  158  A    between atoms: _382  and  _385
REMARK  159  A    between atoms: _385  and  _386
REMARK  160  A    between atoms: _388  and  _390
REMARK  161  A    between atoms: _390  and  _391
REMARK  162  A    between atoms: _390  and  _393
REMARK  163  A    between atoms: _393  and  _394
REMARK  164  A    between atoms: _394  and  _395
REMARK  165  A    between atoms: _397  and  _399
REMARK  166  A    between atoms: _399  and  _400
REMARK  167  A    between atoms: _399  and  _402
REMARK  168  A    between atoms: _402  and  _403
REMARK  169  A    between atoms: _408  and  _409
REMARK  170  A    between atoms: _411  and  _413
REMARK  171  A    between atoms: _413  and  _414
REMARK  172  A    between atoms: _413  and  _416
REMARK  173  A    between atoms: _416  and  _417
REMARK  174  A    between atoms: _420  and  _422
REMARK  175  A    between atoms: _422  and  _423
REMARK  176  A    between atoms: _422  and  _425
REMARK  177  A    between atoms: _425  and  _426
REMARK  178  A    between atoms: _428  and  _430
REMARK  179  A    between atoms: _430  and  _431
REMARK  180  A    between atoms: _430  and  _433
REMARK  181  A    between atoms: _433  and  _434
REMARK  182  A    between atoms: _437  and  _439
REMARK  183  A    between atoms: _439  and  _440
REMARK  184  A    between atoms: _439  and  _442
REMARK  185  A    between atoms: _442  and  _443
REMARK  186  A    between atoms: _448  and  _449
REMARK  187  A    between atoms: _451  and  _453
REMARK  188  A    between atoms: _453  and  _454
REMARK  189  A    between atoms: _453  and  _456
REMARK  190  A    between atoms: _456  and  _457
REMARK  191  A    between atoms: _459  and  _461
REMARK  192  A    between atoms: _461  and  _462
REMARK  193  A    between atoms: _461  and  _464
REMARK  194  A    between atoms: _464  and  _465
REMARK  195  A    between atoms: _471  and  _473
REMARK  196  A    between atoms: _473  and  _474
REMARK  197  A    between atoms: _473  and  _476
REMARK  198  A    between atoms: _476  and  _477
REMARK  199  A    between atoms: _477  and  _478
REMARK  200  A    between atoms: _478  and  _479
REMARK  201  A    between atoms: _488  and  _490
REMARK  202  A    between atoms: _490  and  _491
REMARK  203  A    between atoms: _490  and  _493
REMARK  204  A    between atoms: _496  and  _498
REMARK  205  A    between atoms: _498  and  _499
REMARK  206  A    between atoms: _501  and  _503
REMARK  207  A    between atoms: _503  and  _504
REMARK  208  A    between atoms: _503  and  _506
REMARK  209  A    between atoms: _506  and  _507
REMARK  210  A    between atoms: _510  and  _512
REMARK  211  A    between atoms: _512  and  _513
REMARK  212  A    between atoms: _512  and  _515
REMARK  213  A    between atoms: _515  and  _516
REMARK  214  A    between atoms: _516  and  _517
REMARK  215  A    between atoms: _519  and  _521
REMARK  216  A    between atoms: _521  and  _522
REMARK  217  A    between atoms: _521  and  _524
REMARK  218  A    between atoms: _524  and  _525
REMARK  219  A    between atoms: _531  and  _533
REMARK  220  A    between atoms: _533  and  _534
REMARK  221  A    between atoms: _533  and  _536
REMARK  222  A    between atoms: _536  and  _537
REMARK  223  A    between atoms: _542  and  _544
REMARK  224  A    between atoms: _544  and  _545
REMARK  225  A    between atoms: _544  and  _547
REMARK  226  A    between atoms: _547  and  _548
REMARK  227  A    between atoms: _558  and  _560
REMARK  228  A    between atoms: _560  and  _561
REMARK  229  A    between atoms: _560  and  _563
REMARK  230  A    between atoms: _566  and  _568
REMARK  231  A    between atoms: _568  and  _569
REMARK  232  A    between atoms: _568  and  _571
REMARK  233  A    between atoms: _571  and  _572
REMARK  234  A    between atoms: _575  and  _577
REMARK  235  A    between atoms: _577  and  _578
REMARK  236  A    between atoms: _577  and  _580
REMARK  237  A    between atoms: _580  and  _581
REMARK  238  A    between atoms: _581  and  _582
REMARK  239  A    between atoms: _584  and  _586
REMARK  240  A    between atoms: _586  and  _587
REMARK  241  A    between atoms: _586  and  _589
REMARK  242  A    between atoms: _589  and  _590
REMARK  243  A    between atoms: _593  and  _595
REMARK  244  A    between atoms: _595  and  _596
REMARK  245  A    between atoms: _595  and  _598
REMARK  246  A    between atoms: _598  and  _599
REMARK  247  A    between atoms: _602  and  _604
REMARK  248  A    between atoms: _604  and  _605
REMARK  249  A    between atoms: _607  and  _609
REMARK  250  A    between atoms: _609  and  _610
REMARK  251  A    between atoms: _609  and  _612
REMARK  252  A    between atoms: _612  and  _613
REMARK  253  A    between atoms: _615  and  _617
REMARK  254  A    between atoms: _617  and  _618
REMARK  255  A    between atoms: _617  and  _620
REMARK  256  A    between atoms: _620  and  _621
REMARK  257  A    between atoms: _631  and  _633
REMARK  258  A    between atoms: _633  and  _634
REMARK  259  A    between atoms: _633  and  _636
REMARK  260  A    between atoms: _636  and  _637
REMARK  261  A    between atoms: _639  and  _641
REMARK  262  A    between atoms: _641  and  _642
REMARK  263  A    between atoms: _641  and  _644
REMARK  264  A    between atoms: _644  and  _645
REMARK  265  A    between atoms: _648  and  _650
REMARK  266  A    between atoms: _650  and  _651
REMARK  267  A    between atoms: _654  and  _656
REMARK  268  A    between atoms: _656  and  _657
REMARK  269  A    between atoms: _656  and  _659
REMARK  270  A    between atoms: _659  and  _660
REMARK  271  A    between atoms: _662  and  _664
REMARK  272  A    between atoms: _664  and  _665
REMARK  273  A    between atoms: _664  and  _667
REMARK  274  A    between atoms: _667  and  _668
REMARK  275  A    between atoms: _668  and  _669
REMARK  276  A    between atoms: _673  and  _674
REMARK  277  A    between atoms: _679  and  _681
REMARK  278  A    between atoms: _681  and  _682
REMARK  279  A    between atoms: _681  and  _684
REMARK  280  A    between atoms: _684  and  _685
REMARK  281  A    between atoms: _687  and  _689
REMARK  282  A    between atoms: _689  and  _690
REMARK  283  A    between atoms: _689  and  _692
REMARK  284  A    between atoms: _692  and  _693
REMARK  285  A    between atoms: _693  and  _694
REMARK  286  A    between atoms: _699  and  _701
REMARK  287  A    between atoms: _701  and  _702
REMARK  288  A    between atoms: _701  and  _704
REMARK  289  A    between atoms: _704  and  _705
REMARK  290  A    between atoms: _705  and  _706
REMARK  291  A    between atoms: _711  and  _713
REMARK  292  A    between atoms: _713  and  _714
REMARK  293  A    between atoms: _713  and  _716
REMARK  294  A    between atoms: _716  and  _717
REMARK  295  A    between atoms: _720  and  _722
REMARK  296  A    between atoms: _722  and  _723
REMARK  297  A    between atoms: _722  and  _725
REMARK  298  A    between atoms: _725  and  _726
REMARK  299  A    between atoms: _729  and  _731
REMARK  300  A    between atoms: _731  and  _732
REMARK  301  A    between atoms: _731  and  _734
REMARK  302  A    between atoms: _734  and  _735
REMARK  303  A    between atoms: _741  and  _743
REMARK  304  A    between atoms: _743  and  _744
REMARK  305  A    between atoms: _743  and  _746
REMARK  306  A    between atoms: _746  and  _747
REMARK  307  A    between atoms: _752  and  _753
REMARK  308  A    between atoms: _755  and  _757
REMARK  309  A    between atoms: _757  and  _758
REMARK  310  A    between atoms: _757  and  _760
REMARK  311  A    between atoms: _760  and  _761
REMARK  312  A    between atoms: _767  and  _769
REMARK  313  A    between atoms: _769  and  _770
REMARK  314  A    between atoms: _769  and  _772
REMARK  315  A    between atoms: _772  and  _773
REMARK  316  A    between atoms: _778  and  _780
REMARK  317  A    between atoms: _780  and  _781
REMARK  318  A    between atoms: _780  and  _783
REMARK  319  A    between atoms: _783  and  _784
REMARK  320  A    between atoms: _784  and  _785
REMARK                            x       y       z     vdW  Elec       q    Type
REMARK                         _______ _______ _______ _____ _____    ______ ____
ROOT
ATOM      1  O   HOH     1      16.434  39.038  18.310  0.00  0.00    +0.000 OA
ENDROOT
TORSDOF 0
REMARK  Name = ../refined-set-2016/3drf/3drf_pocket.pdb
REMARK  320 active torsions:
REMARK  status: ('A' for Active; 'I' for Inactive)
REMARK    1  A    between atoms: _1  and  _3
REMARK    2  A    between atoms: _3  and  _4
REMARK    3  A    between atoms: _3  and  _6
REMARK    4  A    between atoms: _6  and  _7
REMARK    5  A    between atoms: _12  and  _13
REMARK    6  A    between atoms: _15  and  _17
REMARK    7  A    between atoms: _17  and  _18
REMARK    8  A    between atoms: _17  and  _20
REMARK    9  A    between atoms: _20  and  _21
REMARK   10  A    between atoms: _21  and  _22
REMARK   11  A    between atoms: _27  and  _29
REMARK   12  A    between atoms: _29  and  _30
REMARK   13  A    between atoms: _29  and  _32
REMARK   14  A    between atoms: _32  and  _33
REMARK   15  A    between atoms: _35  and  _37
REMARK   16  A    between atoms: _37  and  _38
REMARK   17  A    between atoms: _37  and  _40
REMARK   18  A    between atoms: _40  and  _41
REMARK   19  A    between atoms: _44  and  _46
REMARK   20  A    between atoms: _46  and  _47
REMARK   21  A    between atoms: _46  and  _49
REMARK   22  A    between atoms: _49  and  _50
REMARK   23  A    between atoms: _52  and  _54
REMARK   24  A    between atoms: _54  and  _55
REMARK   25  A    between atoms: _54  and  _57
REMARK   26  A    between atoms: _57  and  _58
REMARK   27  A    between atoms: _60  and  _62
REMARK   28  A    between atoms: _62  and  _63
REMARK   29  A    between atoms: _65  and  _67
REMARK   30  A    between atoms: _67  and  _68
REMARK   31  A    between atoms: _67  and  _70
REMARK   32  A    between atoms: _70  and  _71
REMARK   33  A    between atoms: _73  and  _75
REMARK   34  A    between atoms: _75  and  _76
REMARK   35  A    between atoms: _75  and  _78
REMARK   36  A    between atoms: _78  and  _79
REMARK   37  A    between atoms: _84  and  _86
REMARK   38  A    between atoms: _86  and  _87
REMARK   39  A    between atoms: _86  and  _89
REMARK   40  A    between atoms: _89  and  _90
REMARK   41  A    between atoms: _93  and  _95
REMARK   42  A    between atoms: _95  and  _96
REMARK   43  A    between atoms: _99  and  _101
REMARK   44  A    between atoms: _101  and  _102
REMARK   45  A    between atoms: _101  and  _104
REMARK   46  A    between atoms: _104  and  _105
REMARK   47  A    between atoms: _108  and  _110
REMARK   48  A    between atoms: _110  and  _111
REMARK   49  A    between atoms: _110  and  _113
REMARK   50  A    between atoms: _113  and  _114
REMARK   51  A    between atoms: _120  and  _122
REMARK   52  A    between atoms: _122  and  _123
REMARK   53  A    between atoms: _126  and  _128
REMARK   54  A    between atoms: _128  and  _129
REMARK   55  A    between atoms: _128  and  _131
REMARK   56  A    between atoms: _131  and  _132
REMARK   57  A    between atoms: _135  and  _137
REMARK   58  A    between atoms: _137  and  _138
REMARK   59  A    between atoms: _140  and  _142
REMARK   60  A    between atoms: _142  and  _143
REMARK   61  A    between atoms: _142  and  _145
REMARK   62  A    between atoms: _145  and  _146
REMARK   63  A    between atoms: _146  and  _147
REMARK   64  A    between atoms: _152  and  _154
REMARK   65  A    between atoms: _154  and  _155
REMARK   66  A    between atoms: _157  and  _159
REMARK   67  A    between atoms: _159  and  _160
REMARK   68  A    between atoms: _159  and  _162
REMARK   69  A    between atoms: _162  and  _163
REMARK   70  A    between atoms: _166  and  _168
REMARK   71  A    between atoms: _168  and  _169
REMARK   72  A    between atoms: _168  and  _171
REMARK   73  A    between atoms: _171  and  _172
REMARK   74  A    between atoms: _178  and  _180
REMARK   75  A    between atoms: _180  and  _181
REMARK   76  A    between atoms: _180  and  _183
REMARK   77  A    between atoms: _183  and  _184
REMARK   78  A    between atoms: _187  and  _189
REMARK   79  A    between atoms: _189  and  _190
REMARK   80  A    between atoms: _189  and  _192
REMARK   81  A    between atoms: _192  and  _193
REMARK   82  A    between atoms: _199  and  _201
REMARK   83  A    between atoms: _201  and  _202
REMARK   84  A    between atoms: _201  and  _204
REMARK   85  A    between atoms: _204  and  _205
REMARK   86  A    between atoms: _211  and  _213
REMARK   87  A    between atoms: _213  and  _214
REMARK   88  A    between atoms: _213  and  _216
REMARK   89  A    between atoms: _216  and  _217
REMARK   90  A    between atoms: _220  and  _222
REMARK   91  A    between atoms: _222  and  _223
REMARK   92  A    between atoms: _222  and  _225
REMARK   93  A    between atoms: _225  and  _226
REMARK   94  A    between atoms: _229  and  _231
REMARK   95  A    between atoms: _231  and  _232
REMARK   96  A    between atoms: _231  and  _234
REMARK   97  A    between atoms: _234  and  _235
REMARK   98  A    between atoms: _235  and  _236
REMARK   99  A    between atoms: _236  and  _237
REMARK  100  A    between atoms: _246  and  _248
REMARK  101  A    between atoms: _248  and  _249
REMARK  102  A    between atoms: _248  and  _251
REMARK  103  A    between atoms: _251  and  _252
REMARK  104  A    between atoms: _255  and  _257
REMARK  105  A    between atoms: _257  and  _258
REMARK  106  A    between atoms: _257  and  _260
REMARK  107  A    between atoms: _260  and  _261
REMARK  108  A    between atoms: _263  and  _265
REMARK  109  A    between atoms: _265  and  _266
REMARK  110  A    between atoms: _265  and  _268
REMARK  111  A    between atoms: _268  and  _269
REMARK  112  A    between atoms: _269  and  _270
REMARK  113  A    between atoms: _275  and  _277
REMARK  114  A    between atoms: _277  and  _278
REMARK  115  A    between atoms: _277  and  _280
REMARK  116  A    between atoms: _280  and  _281
REMARK  117  A    between atoms: _283  and  _285
REMARK  118  A    between atoms: _285  and  _286
REMARK  119  A    between atoms: _288  and  _290
REMARK  120  A    between atoms: _290  and  _291
REMARK  121  A    between atoms: _290  and  _293
REMARK  122  A    between atoms: _293  and  _294
REMARK  123  A    between atoms: _299  and  _301
REMARK  124  A    between atoms: _301  and  _302
REMARK  125  A    between atoms: _304  and  _306
REMARK  126  A    between atoms: _306  and  _307
REMARK  127  A    between atoms: _306  and  _309
REMARK  128  A    between atoms: _309  and  _310
REMARK  129  A    between atoms: _315  and  _316
REMARK  130  A    between atoms: _318  and  _320
REMARK  131  A    between atoms: _320  and  _321
REMARK  132  A    between atoms: _320  and  _323
REMARK  133  A    between atoms: _323  and  _324
REMARK  134  A    between atoms: _330  and  _332
REMARK  135  A    between atoms: _332  and  _333
REMARK  136  A    between atoms: _332  and  _335
REMARK  137  A    between atoms: _335  and  _336
REMARK  138  A    between atoms: _339  and  _341
REMARK  139  A    between atoms: _341  and  _342
REMARK  140  A    between atoms: _341  and  _344
REMARK  141  A    between atoms: _344  and  _345
REMARK  142  A    between atoms: _345  and  _346
REMARK  143  A    between atoms: _349  and  _351
REMARK  144  A    between atoms: _351  and  _352
REMARK  145  A    between atoms: _351  and  _354
REMARK  146  A    between atoms: _354  and  _355
REMARK  147  A    between atoms: _358  and  _360
REMARK  148  A    between atoms: _360  and  _361
REMARK  149  A    between atoms: _360  and  _363
REMARK  150  A    between atoms: _363  and  _364
REMARK  151  A    between atoms: _367  and  _369
REMARK  152  A    between atoms: _369  and  _370
REMARK  153  A    between atoms: _372  and  _374
REMARK  154  A    between atoms: _374  and  _375
REMARK  155  A    between atoms: _374  and  _377
REMARK  156  A    between atoms: _380  and  _382
REMARK  157  A    between atoms: _382  and  _383
REMARK  158  A    between atoms: _382  and  _385
REMARK  159  A    between atoms: _385  and  _386
REMARK  160  A    between atoms: _388  and  _390
REMARK  161  A    between atoms: _390  and  _391
REMARK  162  A    between atoms: _390  and  _393
REMARK  163  A    between atoms: _393  and  _394
REMARK  164  A    between atoms: _394  and  _395
REMARK  165  A    between atoms: _397  and  _399
REMARK  166  A    between atoms: _399  and  _400
REMARK  167  A    between atoms: _399  and  _402
REMARK  168  A    between atoms: _402  and  _403
REMARK  169  A    between atoms: _408  and  _409
REMARK  170  A    between atoms: _411  and  _413
REMARK  171  A    between atoms: _413  and  _414
REMARK  172  A    between atoms: _413  and  _416
REMARK  173  A    between atoms: _416  and  _417
REMARK  174  A    between atoms: _420  and  _422
REMARK  175  A    between atoms: _422  and  _423
REMARK  176  A    between atoms: _422  and  _425
REMARK  177  A    between atoms: _425  and  _426
REMARK  178  A    between atoms: _428  and  _430
REMARK  179  A    between atoms: _430  and  _431
REMARK  180  A    between atoms: _430  and  _433
REMARK  181  A    between atoms: _433  and  _434
REMARK  182  A    between atoms: _437  and  _439
REMARK  183  A    between atoms: _439  and  _440
REMARK  184  A    between atoms: _439  and  _442
REMARK  185  A    between atoms: _442  and  _443
REMARK  186  A    between atoms: _448  and  _449
REMARK  187  A    between atoms: _451  and  _453
REMARK  188  A    between atoms: _453  and  _454
REMARK  189  A    between atoms: _453  and  _456
REMARK  190  A    between atoms: _456  and  _457
REMARK  191  A    between atoms: _459  and  _461
REMARK  192  A    between atoms: _461  and  _462
REMARK  193  A    between atoms: _461  and  _464
REMARK  194  A    between atoms: _464  and  _465
REMARK  195  A    between atoms: _471  and  _473
REMARK  196  A    between atoms: _473  and  _474
REMARK  197  A    between atoms: _473  and  _476
REMARK  198  A    between atoms: _476  and  _477
REMARK  199  A    between atoms: _477  and  _478
REMARK  200  A    between atoms: _478  and  _479
REMARK  201  A    between atoms: _488  and  _490
REMARK  202  A    between atoms: _490  and  _491
REMARK  203  A    between atoms: _490  and  _493
REMARK  204  A    between atoms: _496  and  _498
REMARK  205  A    between atoms: _498  and  _499
REMARK  206  A    between atoms: _501  and  _503
REMARK  207  A    between atoms: _503  and  _504
REMARK  208  A    between atoms: _503  and  _506
REMARK  209  A    between atoms: _506  and  _507
REMARK  210  A    between atoms: _510  and  _512
REMARK  211  A    between atoms: _512  and  _513
REMARK  212  A    between atoms: _512  and  _515
REMARK  213  A    between atoms: _515  and  _516
REMARK  214  A    between atoms: _516  and  _517
REMARK  215  A    between atoms: _519  and  _521
REMARK  216  A    between atoms: _521  and  _522
REMARK  217  A    between atoms: _521  and  _524
REMARK  218  A    between atoms: _524  and  _525
REMARK  219  A    between atoms: _531  and  _533
REMARK  220  A    between atoms: _533  and  _534
REMARK  221  A    between atoms: _533  and  _536
REMARK  222  A    between atoms: _536  and  _537
REMARK  223  A    between atoms: _542  and  _544
REMARK  224  A    between atoms: _544  and  _545
REMARK  225  A    between atoms: _544  and  _547
REMARK  226  A    between atoms: _547  and  _548
REMARK  227  A    between atoms: _558  and  _560
REMARK  228  A    between atoms: _560  and  _561
REMARK  229  A    between atoms: _560  and  _563
REMARK  230  A    between atoms: _566  and  _568
REMARK  231  A    between atoms: _568  and  _569
REMARK  232  A    between atoms: _568  and  _571
REMARK  233  A    between atoms: _571  and  _572
REMARK  234  A    between atoms: _575  and  _577
REMARK  235  A    between atoms: _577  and  _578
REMARK  236  A    between atoms: _577  and  _580
REMARK  237  A    between atoms: _580  and  _581
REMARK  238  A    between atoms: _581  and  _582
REMARK  239  A    between atoms: _584  and  _586
REMARK  240  A    between atoms: _586  and  _587
REMARK  241  A    between atoms: _586  and  _589
REMARK  242  A    between atoms: _589  and  _590
REMARK  243  A    between atoms: _593  and  _595
REMARK  244  A    between atoms: _595  and  _596
REMARK  245  A    between atoms: _595  and  _598
REMARK  246  A    between atoms: _598  and  _599
REMARK  247  A    between atoms: _602  and  _604
REMARK  248  A    between atoms: _604  and  _605
REMARK  249  A    between atoms: _607  and  _609
REMARK  250  A    between atoms: _609  and  _610
REMARK  251  A    between atoms: _609  and  _612
REMARK  252  A    between atoms: _612  and  _613
REMARK  253  A    between atoms: _615  and  _617
REMARK  254  A    between atoms: _617  and  _618
REMARK  255  A    between atoms: _617  and  _620
REMARK  256  A    between atoms: _620  and  _621
REMARK  257  A    between atoms: _631  and  _633
REMARK  258  A    between atoms: _633  and  _634
REMARK  259  A    between atoms: _633  and  _636
REMARK  260  A    between atoms: _636  and  _637
REMARK  261  A    between atoms: _639  and  _641
REMARK  262  A    between atoms: _641  and  _642
REMARK  263  A    between atoms: _641  and  _644
REMARK  264  A    between atoms: _644  and  _645
REMARK  265  A    between atoms: _648  and  _650
REMARK  266  A    between atoms: _650  and  _651
REMARK  267  A    between atoms: _654  and  _656
REMARK  268  A    between atoms: _656  and  _657
REMARK  269  A    between atoms: _656  and  _659
REMARK  270  A    between atoms: _659  and  _660
REMARK  271  A    between atoms: _662  and  _664
REMARK  272  A    between atoms: _664  and  _665
REMARK  273  A    between atoms: _664  and  _667
REMARK  274  A    between atoms: _667  and  _668
REMARK  275  A    between atoms: _668  and  _669
REMARK  276  A    between atoms: _673  and  _674
REMARK  277  A    between atoms: _679  and  _681
REMARK  278  A    between atoms: _681  and  _682
REMARK  279  A    between atoms: _681  and  _684
REMARK  280  A    between atoms: _684  and  _685
REMARK  281  A    between atoms: _687  and  _689
REMARK  282  A    between atoms: _689  and  _690
REMARK  283  A    between atoms: _689  and  _692
REMARK  284  A    between atoms: _692  and  _693
REMARK  285  A    between atoms: _693  and  _694
REMARK  286  A    between atoms: _699  and  _701
REMARK  287  A    between atoms: _701  and  _702
REMARK  288  A    between atoms: _701  and  _704
REMARK  289  A    between atoms: _704  and  _705
REMARK  290  A    between atoms: _705  and  _706
REMARK  291  A    between atoms: _711  and  _713
REMARK  292  A    between atoms: _713  and  _714
REMARK  293  A    between atoms: _713  and  _716
REMARK  294  A    between atoms: _716  and  _717
REMARK  295  A    between atoms: _720  and  _722
REMARK  296  A    between atoms: _722  and  _723
REMARK  297  A    between atoms: _722  and  _725
REMARK  298  A    between atoms: _725  and  _726
REMARK  299  A    between atoms: _729  and  _731
REMARK  300  A    between atoms: _731  and  _732
REMARK  301  A    between atoms: _731  and  _734
REMARK  302  A    between atoms: _734  and  _735
REMARK  303  A    between atoms: _741  and  _743
REMARK  304  A    between atoms: _743  and  _744
REMARK  305  A    between atoms: _743  and  _746
REMARK  306  A    between atoms: _746  and  _747
REMARK  307  A    between atoms: _752  and  _753
REMARK  308  A    between atoms: _755  and  _757
REMARK  309  A    between atoms: _757  and  _758
REMARK  310  A    between atoms: _757  and  _760
REMARK  311  A    between atoms: _760  and  _761
REMARK  312  A    between atoms: _767  and  _769
REMARK  313  A    between atoms: _769  and  _770
REMARK  314  A    between atoms: _769  and  _772
REMARK  315  A    between atoms: _772  and  _773
REMARK  316  A    between atoms: _778  and  _780
REMARK  317  A    between atoms: _780  and  _781
REMARK  318  A    between atoms: _780  and  _783
REMARK  319  A    between atoms: _783  and  _784
REMARK  320  A    between atoms: _784  and  _785
REMARK                            x       y       z     vdW  Elec       q    Type
REMARK                         _______ _______ _______ _____ _____    ______ ____
ROOT
ATOM      1  O   HOH     1      -3.212  45.983  26.659  0.00  0.00    +0.000 OA
ENDROOT
TORSDOF 0
REMARK  Name = ../refined-set-2016/3drf/3drf_pocket.pdb
REMARK  320 active torsions:
REMARK  status: ('A' for Active; 'I' for Inactive)
REMARK    1  A    between atoms: _1  and  _3
REMARK    2  A    between atoms: _3  and  _4
REMARK    3  A    between atoms: _3  and  _6
REMARK    4  A    between atoms: _6  and  _7
REMARK    5  A    between atoms: _12  and  _13
REMARK    6  A    between atoms: _15  and  _17
REMARK    7  A    between atoms: _17  and  _18
REMARK    8  A    between atoms: _17  and  _20
REMARK    9  A    between atoms: _20  and  _21
REMARK   10  A    between atoms: _21  and  _22
REMARK   11  A    between atoms: _27  and  _29
REMARK   12  A    between atoms: _29  and  _30
REMARK   13  A    between atoms: _29  and  _32
REMARK   14  A    between atoms: _32  and  _33
REMARK   15  A    between atoms: _35  and  _37
REMARK   16  A    between atoms: _37  and  _38
REMARK   17  A    between atoms: _37  and  _40
REMARK   18  A    between atoms: _40  and  _41
REMARK   19  A    between atoms: _44  and  _46
REMARK   20  A    between atoms: _46  and  _47
REMARK   21  A    between atoms: _46  and  _49
REMARK   22  A    between atoms: _49  and  _50
REMARK   23  A    between atoms: _52  and  _54
REMARK   24  A    between atoms: _54  and  _55
REMARK   25  A    between atoms: _54  and  _57
REMARK   26  A    between atoms: _57  and  _58
REMARK   27  A    between atoms: _60  and  _62
REMARK   28  A    between atoms: _62  and  _63
REMARK   29  A    between atoms: _65  and  _67
REMARK   30  A    between atoms: _67  and  _68
REMARK   31  A    between atoms: _67  and  _70
REMARK   32  A    between atoms: _70  and  _71
REMARK   33  A    between atoms: _73  and  _75
REMARK   34  A    between atoms: _75  and  _76
REMARK   35  A    between atoms: _75  and  _78
REMARK   36  A    between atoms: _78  and  _79
REMARK   37  A    between atoms: _84  and  _86
REMARK   38  A    between atoms: _86  and  _87
REMARK   39  A    between atoms: _86  and  _89
REMARK   40  A    between atoms: _89  and  _90
REMARK   41  A    between atoms: _93  and  _95
REMARK   42  A    between atoms: _95  and  _96
REMARK   43  A    between atoms: _99  and  _101
REMARK   44  A    between atoms: _101  and  _102
REMARK   45  A    between atoms: _101  and  _104
REMARK   46  A    between atoms: _104  and  _105
REMARK   47  A    between atoms: _108  and  _110
REMARK   48  A    between atoms: _110  and  _111
REMARK   49  A    between atoms: _110  and  _113
REMARK   50  A    between atoms: _113  and  _114
REMARK   51  A    between atoms: _120  and  _122
REMARK   52  A    between atoms: _122  and  _123
REMARK   53  A    between atoms: _126  and  _128
REMARK   54  A    between atoms: _128  and  _129
REMARK   55  A    between atoms: _128  and  _131
REMARK   56  A    between atoms: _131  and  _132
REMARK   57  A    between atoms: _135  and  _137
REMARK   58  A    between atoms: _137  and  _138
REMARK   59  A    between atoms: _140  and  _142
REMARK   60  A    between atoms: _142  and  _143
REMARK   61  A    between atoms: _142  and  _145
REMARK   62  A    between atoms: _145  and  _146
REMARK   63  A    between atoms: _146  and  _147
REMARK   64  A    between atoms: _152  and  _154
REMARK   65  A    between atoms: _154  and  _155
REMARK   66  A    between atoms: _157  and  _159
REMARK   67  A    between atoms: _159  and  _160
REMARK   68  A    between atoms: _159  and  _162
REMARK   69  A    between atoms: _162  and  _163
REMARK   70  A    between atoms: _166  and  _168
REMARK   71  A    between atoms: _168  and  _169
REMARK   72  A    between atoms: _168  and  _171
REMARK   73  A    between atoms: _171  and  _172
REMARK   74  A    between atoms: _178  and  _180
REMARK   75  A    between atoms: _180  and  _181
REMARK   76  A    between atoms: _180  and  _183
REMARK   77  A    between atoms: _183  and  _184
REMARK   78  A    between atoms: _187  and  _189
REMARK   79  A    between atoms: _189  and  _190
REMARK   80  A    between atoms: _189  and  _192
REMARK   81  A    between atoms: _192  and  _193
REMARK   82  A    between atoms: _199  and  _201
REMARK   83  A    between atoms: _201  and  _202
REMARK   84  A    between atoms: _201  and  _204
REMARK   85  A    between atoms: _204  and  _205
REMARK   86  A    between atoms: _211  and  _213
REMARK   87  A    between atoms: _213  and  _214
REMARK   88  A    between atoms: _213  and  _216
REMARK   89  A    between atoms: _216  and  _217
REMARK   90  A    between atoms: _220  and  _222
REMARK   91  A    between atoms: _222  and  _223
REMARK   92  A    between atoms: _222  and  _225
REMARK   93  A    between atoms: _225  and  _226
REMARK   94  A    between atoms: _229  and  _231
REMARK   95  A    between atoms: _231  and  _232
REMARK   96  A    between atoms: _231  and  _234
REMARK   97  A    between atoms: _234  and  _235
REMARK   98  A    between atoms: _235  and  _236
REMARK   99  A    between atoms: _236  and  _237
REMARK  100  A    between atoms: _246  and  _248
REMARK  101  A    between atoms: _248  and  _249
REMARK  102  A    between atoms: _248  and  _251
REMARK  103  A    between atoms: _251  and  _252
REMARK  104  A    between atoms: _255  and  _257
REMARK  105  A    between atoms: _257  and  _258
REMARK  106  A    between atoms: _257  and  _260
REMARK  107  A    between atoms: _260  and  _261
REMARK  108  A    between atoms: _263  and  _265
REMARK  109  A    between atoms: _265  and  _266
REMARK  110  A    between atoms: _265  and  _268
REMARK  111  A    between atoms: _268  and  _269
REMARK  112  A    between atoms: _269  and  _270
REMARK  113  A    between atoms: _275  and  _277
REMARK  114  A    between atoms: _277  and  _278
REMARK  115  A    between atoms: _277  and  _280
REMARK  116  A    between atoms: _280  and  _281
REMARK  117  A    between atoms: _283  and  _285
REMARK  118  A    between atoms: _285  and  _286
REMARK  119  A    between atoms: _288  and  _290
REMARK  120  A    between atoms: _290  and  _291
REMARK  121  A    between atoms: _290  and  _293
REMARK  122  A    between atoms: _293  and  _294
REMARK  123  A    between atoms: _299  and  _301
REMARK  124  A    between atoms: _301  and  _302
REMARK  125  A    between atoms: _304  and  _306
REMARK  126  A    between atoms: _306  and  _307
REMARK  127  A    between atoms: _306  and  _309
REMARK  128  A    between atoms: _309  and  _310
REMARK  129  A    between atoms: _315  and  _316
REMARK  130  A    between atoms: _318  and  _320
REMARK  131  A    between atoms: _320  and  _321
REMARK  132  A    between atoms: _320  and  _323
REMARK  133  A    between atoms: _323  and  _324
REMARK  134  A    between atoms: _330  and  _332
REMARK  135  A    between atoms: _332  and  _333
REMARK  136  A    between atoms: _332  and  _335
REMARK  137  A    between atoms: _335  and  _336
REMARK  138  A    between atoms: _339  and  _341
REMARK  139  A    between atoms: _341  and  _342
REMARK  140  A    between atoms: _341  and  _344
REMARK  141  A    between atoms: _344  and  _345
REMARK  142  A    between atoms: _345  and  _346
REMARK  143  A    between atoms: _349  and  _351
REMARK  144  A    between atoms: _351  and  _352
REMARK  145  A    between atoms: _351  and  _354
REMARK  146  A    between atoms: _354  and  _355
REMARK  147  A    between atoms: _358  and  _360
REMARK  148  A    between atoms: _360  and  _361
REMARK  149  A    between atoms: _360  and  _363
REMARK  150  A    between atoms: _363  and  _364
REMARK  151  A    between atoms: _367  and  _369
REMARK  152  A    between atoms: _369  and  _370
REMARK  153  A    between atoms: _372  and  _374
REMARK  154  A    between atoms: _374  and  _375
REMARK  155  A    between atoms: _374  and  _377
REMARK  156  A    between atoms: _380  and  _382
REMARK  157  A    between atoms: _382  and  _383
REMARK  158  A    between atoms: _382  and  _385
REMARK  159  A    between atoms: _385  and  _386
REMARK  160  A    between atoms: _388  and  _390
REMARK  161  A    between atoms: _390  and  _391
REMARK  162  A    between atoms: _390  and  _393
REMARK  163  A    between atoms: _393  and  _394
REMARK  164  A    between atoms: _394  and  _395
REMARK  165  A    between atoms: _397  and  _399
REMARK  166  A    between atoms: _399  and  _400
REMARK  167  A    between atoms: _399  and  _402
REMARK  168  A    between atoms: _402  and  _403
REMARK  169  A    between atoms: _408  and  _409
REMARK  170  A    between atoms: _411  and  _413
REMARK  171  A    between atoms: _413  and  _414
REMARK  172  A    between atoms: _413  and  _416
REMARK  173  A    between atoms: _416  and  _417
REMARK  174  A    between atoms: _420  and  _422
REMARK  175  A    between atoms: _422  and  _423
REMARK  176  A    between atoms: _422  and  _425
REMARK  177  A    between atoms: _425  and  _426
REMARK  178  A    between atoms: _428  and  _430
REMARK  179  A    between atoms: _430  and  _431
REMARK  180  A    between atoms: _430  and  _433
REMARK  181  A    between atoms: _433  and  _434
REMARK  182  A    between atoms: _437  and  _439
REMARK  183  A    between atoms: _439  and  _440
REMARK  184  A    between atoms: _439  and  _442
REMARK  185  A    between atoms: _442  and  _443
REMARK  186  A    between atoms: _448  and  _449
REMARK  187  A    between atoms: _451  and  _453
REMARK  188  A    between atoms: _453  and  _454
REMARK  189  A    between atoms: _453  and  _456
REMARK  190  A    between atoms: _456  and  _457
REMARK  191  A    between atoms: _459  and  _461
REMARK  192  A    between atoms: _461  and  _462
REMARK  193  A    between atoms: _461  and  _464
REMARK  194  A    between atoms: _464  and  _465
REMARK  195  A    between atoms: _471  and  _473
REMARK  196  A    between atoms: _473  and  _474
REMARK  197  A    between atoms: _473  and  _476
REMARK  198  A    between atoms: _476  and  _477
REMARK  199  A    between atoms: _477  and  _478
REMARK  200  A    between atoms: _478  and  _479
REMARK  201  A    between atoms: _488  and  _490
REMARK  202  A    between atoms: _490  and  _491
REMARK  203  A    between atoms: _490  and  _493
REMARK  204  A    between atoms: _496  and  _498
REMARK  205  A    between atoms: _498  and  _499
REMARK  206  A    between atoms: _501  and  _503
REMARK  207  A    between atoms: _503  and  _504
REMARK  208  A    between atoms: _503  and  _506
REMARK  209  A    between atoms: _506  and  _507
REMARK  210  A    between atoms: _510  and  _512
REMARK  211  A    between atoms: _512  and  _513
REMARK  212  A    between atoms: _512  and  _515
REMARK  213  A    between atoms: _515  and  _516
REMARK  214  A    between atoms: _516  and  _517
REMARK  215  A    between atoms: _519  and  _521
REMARK  216  A    between atoms: _521  and  _522
REMARK  217  A    between atoms: _521  and  _524
REMARK  218  A    between atoms: _524  and  _525
REMARK  219  A    between atoms: _531  and  _533
REMARK  220  A    between atoms: _533  and  _534
REMARK  221  A    between atoms: _533  and  _536
REMARK  222  A    between atoms: _536  and  _537
REMARK  223  A    between atoms: _542  and  _544
REMARK  224  A    between atoms: _544  and  _545
REMARK  225  A    between atoms: _544  and  _547
REMARK  226  A    between atoms: _547  and  _548
REMARK  227  A    between atoms: _558  and  _560
REMARK  228  A    between atoms: _560  and  _561
REMARK  229  A    between atoms: _560  and  _563
REMARK  230  A    between atoms: _566  and  _568
REMARK  231  A    between atoms: _568  and  _569
REMARK  232  A    between atoms: _568  and  _571
REMARK  233  A    between atoms: _571  and  _572
REMARK  234  A    between atoms: _575  and  _577
REMARK  235  A    between atoms: _577  and  _578
REMARK  236  A    between atoms: _577  and  _580
REMARK  237  A    between atoms: _580  and  _581
REMARK  238  A    between atoms: _581  and  _582
REMARK  239  A    between atoms: _584  and  _586
REMARK  240  A    between atoms: _586  and  _587
REMARK  241  A    between atoms: _586  and  _589
REMARK  242  A    between atoms: _589  and  _590
REMARK  243  A    between atoms: _593  and  _595
REMARK  244  A    between atoms: _595  and  _596
REMARK  245  A    between atoms: _595  and  _598
REMARK  246  A    between atoms: _598  and  _599
REMARK  247  A    between atoms: _602  and  _604
REMARK  248  A    between atoms: _604  and  _605
REMARK  249  A    between atoms: _607  and  _609
REMARK  250  A    between atoms: _609  and  _610
REMARK  251  A    between atoms: _609  and  _612
REMARK  252  A    between atoms: _612  and  _613
REMARK  253  A    between atoms: _615  and  _617
REMARK  254  A    between atoms: _617  and  _618
REMARK  255  A    between atoms: _617  and  _620
REMARK  256  A    between atoms: _620  and  _621
REMARK  257  A    between atoms: _631  and  _633
REMARK  258  A    between atoms: _633  and  _634
REMARK  259  A    between atoms: _633  and  _636
REMARK  260  A    between atoms: _636  and  _637
REMARK  261  A    between atoms: _639  and  _641
REMARK  262  A    between atoms: _641  and  _642
REMARK  263  A    between atoms: _641  and  _644
REMARK  264  A    between atoms: _644  and  _645
REMARK  265  A    between atoms: _648  and  _650
REMARK  266  A    between atoms: _650  and  _651
REMARK  267  A    between atoms: _654  and  _656
REMARK  268  A    between atoms: _656  and  _657
REMARK  269  A    between atoms: _656  and  _659
REMARK  270  A    between atoms: _659  and  _660
REMARK  271  A    between atoms: _662  and  _664
REMARK  272  A    between atoms: _664  and  _665
REMARK  273  A    between atoms: _664  and  _667
REMARK  274  A    between atoms: _667  and  _668
REMARK  275  A    between atoms: _668  and  _669
REMARK  276  A    between atoms: _673  and  _674
REMARK  277  A    between atoms: _679  and  _681
REMARK  278  A    between atoms: _681  and  _682
REMARK  279  A    between atoms: _681  and  _684
REMARK  280  A    between atoms: _684  and  _685
REMARK  281  A    between atoms: _687  and  _689
REMARK  282  A    between atoms: _689  and  _690
REMARK  283  A    between atoms: _689  and  _692
REMARK  284  A    between atoms: _692  and  _693
REMARK  285  A    between atoms: _693  and  _694
REMARK  286  A    between atoms: _699  and  _701
REMARK  287  A    between atoms: _701  and  _702
REMARK  288  A    between atoms: _701  and  _704
REMARK  289  A    between atoms: _704  and  _705
REMARK  290  A    between atoms: _705  and  _706
REMARK  291  A    between atoms: _711  and  _713
REMARK  292  A    between atoms: _713  and  _714
REMARK  293  A    between atoms: _713  and  _716
REMARK  294  A    between atoms: _716  and  _717
REMARK  295  A    between atoms: _720  and  _722
REMARK  296  A    between atoms: _722  and  _723
REMARK  297  A    between atoms: _722  and  _725
REMARK  298  A    between atoms: _725  and  _726
REMARK  299  A    between atoms: _729  and  _731
REMARK  300  A    between atoms: _731  and  _732
REMARK  301  A    between atoms: _731  and  _734
REMARK  302  A    between atoms: _734  and  _735
REMARK  303  A    between atoms: _741  and  _743
REMARK  304  A    between atoms: _743  and  _744
REMARK  305  A    between atoms: _743  and  _746
REMARK  306  A    between atoms: _746  and  _747
REMARK  307  A    between atoms: _752  and  _753
REMARK  308  A    between atoms: _755  and  _757
REMARK  309  A    between atoms: _757  and  _758
REMARK  310  A    between atoms: _757  and  _760
REMARK  311  A    between atoms: _760  and  _761
REMARK  312  A    between atoms: _767  and  _769
REMARK  313  A    between atoms: _769  and  _770
REMARK  314  A    between atoms: _769  and  _772
REMARK  315  A    between atoms: _772  and  _773
REMARK  316  A    between atoms: _778  and  _780
REMARK  317  A    between atoms: _780  and  _781
REMARK  318  A    between atoms: _780  and  _783
REMARK  319  A    between atoms: _783  and  _784
REMARK  320  A    between atoms: _784  and  _785
REMARK                            x       y       z     vdW  Elec       q    Type
REMARK                         _______ _______ _______ _____ _____    ______ ____
ROOT
ATOM      1  O   HOH     1      12.832  59.928  22.793  0.00  0.00    +0.000 OA
ENDROOT
TORSDOF 0
REMARK  Name = ../refined-set-2016/3drf/3drf_pocket.pdb
REMARK  320 active torsions:
REMARK  status: ('A' for Active; 'I' for Inactive)
REMARK    1  A    between atoms: _1  and  _3
REMARK    2  A    between atoms: _3  and  _4
REMARK    3  A    between atoms: _3  and  _6
REMARK    4  A    between atoms: _6  and  _7
REMARK    5  A    between atoms: _12  and  _13
REMARK    6  A    between atoms: _15  and  _17
REMARK    7  A    between atoms: _17  and  _18
REMARK    8  A    between atoms: _17  and  _20
REMARK    9  A    between atoms: _20  and  _21
REMARK   10  A    between atoms: _21  and  _22
REMARK   11  A    between atoms: _27  and  _29
REMARK   12  A    between atoms: _29  and  _30
REMARK   13  A    between atoms: _29  and  _32
REMARK   14  A    between atoms: _32  and  _33
REMARK   15  A    between atoms: _35  and  _37
REMARK   16  A    between atoms: _37  and  _38
REMARK   17  A    between atoms: _37  and  _40
REMARK   18  A    between atoms: _40  and  _41
REMARK   19  A    between atoms: _44  and  _46
REMARK   20  A    between atoms: _46  and  _47
REMARK   21  A    between atoms: _46  and  _49
REMARK   22  A    between atoms: _49  and  _50
REMARK   23  A    between atoms: _52  and  _54
REMARK   24  A    between atoms: _54  and  _55
REMARK   25  A    between atoms: _54  and  _57
REMARK   26  A    between atoms: _57  and  _58
REMARK   27  A    between atoms: _60  and  _62
REMARK   28  A    between atoms: _62  and  _63
REMARK   29  A    between atoms: _65  and  _67
REMARK   30  A    between atoms: _67  and  _68
REMARK   31  A    between atoms: _67  and  _70
REMARK   32  A    between atoms: _70  and  _71
REMARK   33  A    between atoms: _73  and  _75
REMARK   34  A    between atoms: _75  and  _76
REMARK   35  A    between atoms: _75  and  _78
REMARK   36  A    between atoms: _78  and  _79
REMARK   37  A    between atoms: _84  and  _86
REMARK   38  A    between atoms: _86  and  _87
REMARK   39  A    between atoms: _86  and  _89
REMARK   40  A    between atoms: _89  and  _90
REMARK   41  A    between atoms: _93  and  _95
REMARK   42  A    between atoms: _95  and  _96
REMARK   43  A    between atoms: _99  and  _101
REMARK   44  A    between atoms: _101  and  _102
REMARK   45  A    between atoms: _101  and  _104
REMARK   46  A    between atoms: _104  and  _105
REMARK   47  A    between atoms: _108  and  _110
REMARK   48  A    between atoms: _110  and  _111
REMARK   49  A    between atoms: _110  and  _113
REMARK   50  A    between atoms: _113  and  _114
REMARK   51  A    between atoms: _120  and  _122
REMARK   52  A    between atoms: _122  and  _123
REMARK   53  A    between atoms: _126  and  _128
REMARK   54  A    between atoms: _128  and  _129
REMARK   55  A    between atoms: _128  and  _131
REMARK   56  A    between atoms: _131  and  _132
REMARK   57  A    between atoms: _135  and  _137
REMARK   58  A    between atoms: _137  and  _138
REMARK   59  A    between atoms: _140  and  _142
REMARK   60  A    between atoms: _142  and  _143
REMARK   61  A    between atoms: _142  and  _145
REMARK   62  A    between atoms: _145  and  _146
REMARK   63  A    between atoms: _146  and  _147
REMARK   64  A    between atoms: _152  and  _154
REMARK   65  A    between atoms: _154  and  _155
REMARK   66  A    between atoms: _157  and  _159
REMARK   67  A    between atoms: _159  and  _160
REMARK   68  A    between atoms: _159  and  _162
REMARK   69  A    between atoms: _162  and  _163
REMARK   70  A    between atoms: _166  and  _168
REMARK   71  A    between atoms: _168  and  _169
REMARK   72  A    between atoms: _168  and  _171
REMARK   73  A    between atoms: _171  and  _172
REMARK   74  A    between atoms: _178  and  _180
REMARK   75  A    between atoms: _180  and  _181
REMARK   76  A    between atoms: _180  and  _183
REMARK   77  A    between atoms: _183  and  _184
REMARK   78  A    between atoms: _187  and  _189
REMARK   79  A    between atoms: _189  and  _190
REMARK   80  A    between atoms: _189  and  _192
REMARK   81  A    between atoms: _192  and  _193
REMARK   82  A    between atoms: _199  and  _201
REMARK   83  A    between atoms: _201  and  _202
REMARK   84  A    between atoms: _201  and  _204
REMARK   85  A    between atoms: _204  and  _205
REMARK   86  A    between atoms: _211  and  _213
REMARK   87  A    between atoms: _213  and  _214
REMARK   88  A    between atoms: _213  and  _216
REMARK   89  A    between atoms: _216  and  _217
REMARK   90  A    between atoms: _220  and  _222
REMARK   91  A    between atoms: _222  and  _223
REMARK   92  A    between atoms: _222  and  _225
REMARK   93  A    between atoms: _225  and  _226
REMARK   94  A    between atoms: _229  and  _231
REMARK   95  A    between atoms: _231  and  _232
REMARK   96  A    between atoms: _231  and  _234
REMARK   97  A    between atoms: _234  and  _235
REMARK   98  A    between atoms: _235  and  _236
REMARK   99  A    between atoms: _236  and  _237
REMARK  100  A    between atoms: _246  and  _248
REMARK  101  A    between atoms: _248  and  _249
REMARK  102  A    between atoms: _248  and  _251
REMARK  103  A    between atoms: _251  and  _252
REMARK  104  A    between atoms: _255  and  _257
REMARK  105  A    between atoms: _257  and  _258
REMARK  106  A    between atoms: _257  and  _260
REMARK  107  A    between atoms: _260  and  _261
REMARK  108  A    between atoms: _263  and  _265
REMARK  109  A    between atoms: _265  and  _266
REMARK  110  A    between atoms: _265  and  _268
REMARK  111  A    between atoms: _268  and  _269
REMARK  112  A    between atoms: _269  and  _270
REMARK  113  A    between atoms: _275  and  _277
REMARK  114  A    between atoms: _277  and  _278
REMARK  115  A    between atoms: _277  and  _280
REMARK  116  A    between atoms: _280  and  _281
REMARK  117  A    between atoms: _283  and  _285
REMARK  118  A    between atoms: _285  and  _286
REMARK  119  A    between atoms: _288  and  _290
REMARK  120  A    between atoms: _290  and  _291
REMARK  121  A    between atoms: _290  and  _293
REMARK  122  A    between atoms: _293  and  _294
REMARK  123  A    between atoms: _299  and  _301
REMARK  124  A    between atoms: _301  and  _302
REMARK  125  A    between atoms: _304  and  _306
REMARK  126  A    between atoms: _306  and  _307
REMARK  127  A    between atoms: _306  and  _309
REMARK  128  A    between atoms: _309  and  _310
REMARK  129  A    between atoms: _315  and  _316
REMARK  130  A    between atoms: _318  and  _320
REMARK  131  A    between atoms: _320  and  _321
REMARK  132  A    between atoms: _320  and  _323
REMARK  133  A    between atoms: _323  and  _324
REMARK  134  A    between atoms: _330  and  _332
REMARK  135  A    between atoms: _332  and  _333
REMARK  136  A    between atoms: _332  and  _335
REMARK  137  A    between atoms: _335  and  _336
REMARK  138  A    between atoms: _339  and  _341
REMARK  139  A    between atoms: _341  and  _342
REMARK  140  A    between atoms: _341  and  _344
REMARK  141  A    between atoms: _344  and  _345
REMARK  142  A    between atoms: _345  and  _346
REMARK  143  A    between atoms: _349  and  _351
REMARK  144  A    between atoms: _351  and  _352
REMARK  145  A    between atoms: _351  and  _354
REMARK  146  A    between atoms: _354  and  _355
REMARK  147  A    between atoms: _358  and  _360
REMARK  148  A    between atoms: _360  and  _361
REMARK  149  A    between atoms: _360  and  _363
REMARK  150  A    between atoms: _363  and  _364
REMARK  151  A    between atoms: _367  and  _369
REMARK  152  A    between atoms: _369  and  _370
REMARK  153  A    between atoms: _372  and  _374
REMARK  154  A    between atoms: _374  and  _375
REMARK  155  A    between atoms: _374  and  _377
REMARK  156  A    between atoms: _380  and  _382
REMARK  157  A    between atoms: _382  and  _383
REMARK  158  A    between atoms: _382  and  _385
REMARK  159  A    between atoms: _385  and  _386
REMARK  160  A    between atoms: _388  and  _390
REMARK  161  A    between atoms: _390  and  _391
REMARK  162  A    between atoms: _390  and  _393
REMARK  163  A    between atoms: _393  and  _394
REMARK  164  A    between atoms: _394  and  _395
REMARK  165  A    between atoms: _397  and  _399
REMARK  166  A    between atoms: _399  and  _400
REMARK  167  A    between atoms: _399  and  _402
REMARK  168  A    between atoms: _402  and  _403
REMARK  169  A    between atoms: _408  and  _409
REMARK  170  A    between atoms: _411  and  _413
REMARK  171  A    between atoms: _413  and  _414
REMARK  172  A    between atoms: _413  and  _416
REMARK  173  A    between atoms: _416  and  _417
REMARK  174  A    between atoms: _420  and  _422
REMARK  175  A    between atoms: _422  and  _423
REMARK  176  A    between atoms: _422  and  _425
REMARK  177  A    between atoms: _425  and  _426
REMARK  178  A    between atoms: _428  and  _430
REMARK  179  A    between atoms: _430  and  _431
REMARK  180  A    between atoms: _430  and  _433
REMARK  181  A    between atoms: _433  and  _434
REMARK  182  A    between atoms: _437  and  _439
REMARK  183  A    between atoms: _439  and  _440
REMARK  184  A    between atoms: _439  and  _442
REMARK  185  A    between atoms: _442  and  _443
REMARK  186  A    between atoms: _448  and  _449
REMARK  187  A    between atoms: _451  and  _453
REMARK  188  A    between atoms: _453  and  _454
REMARK  189  A    between atoms: _453  and  _456
REMARK  190  A    between atoms: _456  and  _457
REMARK  191  A    between atoms: _459  and  _461
REMARK  192  A    between atoms: _461  and  _462
REMARK  193  A    between atoms: _461  and  _464
REMARK  194  A    between atoms: _464  and  _465
REMARK  195  A    between atoms: _471  and  _473
REMARK  196  A    between atoms: _473  and  _474
REMARK  197  A    between atoms: _473  and  _476
REMARK  198  A    between atoms: _476  and  _477
REMARK  199  A    between atoms: _477  and  _478
REMARK  200  A    between atoms: _478  and  _479
REMARK  201  A    between atoms: _488  and  _490
REMARK  202  A    between atoms: _490  and  _491
REMARK  203  A    between atoms: _490  and  _493
REMARK  204  A    between atoms: _496  and  _498
REMARK  205  A    between atoms: _498  and  _499
REMARK  206  A    between atoms: _501  and  _503
REMARK  207  A    between atoms: _503  and  _504
REMARK  208  A    between atoms: _503  and  _506
REMARK  209  A    between atoms: _506  and  _507
REMARK  210  A    between atoms: _510  and  _512
REMARK  211  A    between atoms: _512  and  _513
REMARK  212  A    between atoms: _512  and  _515
REMARK  213  A    between atoms: _515  and  _516
REMARK  214  A    between atoms: _516  and  _517
REMARK  215  A    between atoms: _519  and  _521
REMARK  216  A    between atoms: _521  and  _522
REMARK  217  A    between atoms: _521  and  _524
REMARK  218  A    between atoms: _524  and  _525
REMARK  219  A    between atoms: _531  and  _533
REMARK  220  A    between atoms: _533  and  _534
REMARK  221  A    between atoms: _533  and  _536
REMARK  222  A    between atoms: _536  and  _537
REMARK  223  A    between atoms: _542  and  _544
REMARK  224  A    between atoms: _544  and  _545
REMARK  225  A    between atoms: _544  and  _547
REMARK  226  A    between atoms: _547  and  _548
REMARK  227  A    between atoms: _558  and  _560
REMARK  228  A    between atoms: _560  and  _561
REMARK  229  A    between atoms: _560  and  _563
REMARK  230  A    between atoms: _566  and  _568
REMARK  231  A    between atoms: _568  and  _569
REMARK  232  A    between atoms: _568  and  _571
REMARK  233  A    between atoms: _571  and  _572
REMARK  234  A    between atoms: _575  and  _577
REMARK  235  A    between atoms: _577  and  _578
REMARK  236  A    between atoms: _577  and  _580
REMARK  237  A    between atoms: _580  and  _581
REMARK  238  A    between atoms: _581  and  _582
REMARK  239  A    between atoms: _584  and  _586
REMARK  240  A    between atoms: _586  and  _587
REMARK  241  A    between atoms: _586  and  _589
REMARK  242  A    between atoms: _589  and  _590
REMARK  243  A    between atoms: _593  and  _595
REMARK  244  A    between atoms: _595  and  _596
REMARK  245  A    between atoms: _595  and  _598
REMARK  246  A    between atoms: _598  and  _599
REMARK  247  A    between atoms: _602  and  _604
REMARK  248  A    between atoms: _604  and  _605
REMARK  249  A    between atoms: _607  and  _609
REMARK  250  A    between atoms: _609  and  _610
REMARK  251  A    between atoms: _609  and  _612
REMARK  252  A    between atoms: _612  and  _613
REMARK  253  A    between atoms: _615  and  _617
REMARK  254  A    between atoms: _617  and  _618
REMARK  255  A    between atoms: _617  and  _620
REMARK  256  A    between atoms: _620  and  _621
REMARK  257  A    between atoms: _631  and  _633
REMARK  258  A    between atoms: _633  and  _634
REMARK  259  A    between atoms: _633  and  _636
REMARK  260  A    between atoms: _636  and  _637
REMARK  261  A    between atoms: _639  and  _641
REMARK  262  A    between atoms: _641  and  _642
REMARK  263  A    between atoms: _641  and  _644
REMARK  264  A    between atoms: _644  and  _645
REMARK  265  A    between atoms: _648  and  _650
REMARK  266  A    between atoms: _650  and  _651
REMARK  267  A    between atoms: _654  and  _656
REMARK  268  A    between atoms: _656  and  _657
REMARK  269  A    between atoms: _656  and  _659
REMARK  270  A    between atoms: _659  and  _660
REMARK  271  A    between atoms: _662  and  _664
REMARK  272  A    between atoms: _664  and  _665
REMARK  273  A    between atoms: _664  and  _667
REMARK  274  A    between atoms: _667  and  _668
REMARK  275  A    between atoms: _668  and  _669
REMARK  276  A    between atoms: _673  and  _674
REMARK  277  A    between atoms: _679  and  _681
REMARK  278  A    between atoms: _681  and  _682
REMARK  279  A    between atoms: _681  and  _684
REMARK  280  A    between atoms: _684  and  _685
REMARK  281  A    between atoms: _687  and  _689
REMARK  282  A    between atoms: _689  and  _690
REMARK  283  A    between atoms: _689  and  _692
REMARK  284  A    between atoms: _692  and  _693
REMARK  285  A    between atoms: _693  and  _694
REMARK  286  A    between atoms: _699  and  _701
REMARK  287  A    between atoms: _701  and  _702
REMARK  288  A    between atoms: _701  and  _704
REMARK  289  A    between atoms: _704  and  _705
REMARK  290  A    between atoms: _705  and  _706
REMARK  291  A    between atoms: _711  and  _713
REMARK  292  A    between atoms: _713  and  _714
REMARK  293  A    between atoms: _713  and  _716
REMARK  294  A    between atoms: _716  and  _717
REMARK  295  A    between atoms: _720  and  _722
REMARK  296  A    between atoms: _722  and  _723
REMARK  297  A    between atoms: _722  and  _725
REMARK  298  A    between atoms: _725  and  _726
REMARK  299  A    between atoms: _729  and  _731
REMARK  300  A    between atoms: _731  and  _732
REMARK  301  A    between atoms: _731  and  _734
REMARK  302  A    between atoms: _734  and  _735
REMARK  303  A    between atoms: _741  and  _743
REMARK  304  A    between atoms: _743  and  _744
REMARK  305  A    between atoms: _743  and  _746
REMARK  306  A    between atoms: _746  and  _747
REMARK  307  A    between atoms: _752  and  _753
REMARK  308  A    between atoms: _755  and  _757
REMARK  309  A    between atoms: _757  and  _758
REMARK  310  A    between atoms: _757  and  _760
REMARK  311  A    between atoms: _760  and  _761
REMARK  312  A    between atoms: _767  and  _769
REMARK  313  A    between atoms: _769  and  _770
REMARK  314  A    between atoms: _769  and  _772
REMARK  315  A    between atoms: _772  and  _773
REMARK  316  A    between atoms: _778  and  _780
REMARK  317  A    between atoms: _780  and  _781
REMARK  318  A    between atoms: _780  and  _783
REMARK  319  A    between atoms: _783  and  _784
REMARK  320  A    between atoms: _784  and  _785
REMARK                            x       y       z     vdW  Elec       q    Type
REMARK                         _______ _______ _______ _____ _____    ______ ____
ROOT
ATOM      1  O   HOH     1      13.004  53.567  21.686  0.00  0.00    +0.000 OA
ENDROOT
TORSDOF 0
REMARK  Name = ../refined-set-2016/3drf/3drf_pocket.pdb
REMARK  320 active torsions:
REMARK  status: ('A' for Active; 'I' for Inactive)
REMARK    1  A    between atoms: _1  and  _3
REMARK    2  A    between atoms: _3  and  _4
REMARK    3  A    between atoms: _3  and  _6
REMARK    4  A    between atoms: _6  and  _7
REMARK    5  A    between atoms: _12  and  _13
REMARK    6  A    between atoms: _15  and  _17
REMARK    7  A    between atoms: _17  and  _18
REMARK    8  A    between atoms: _17  and  _20
REMARK    9  A    between atoms: _20  and  _21
REMARK   10  A    between atoms: _21  and  _22
REMARK   11  A    between atoms: _27  and  _29
REMARK   12  A    between atoms: _29  and  _30
REMARK   13  A    between atoms: _29  and  _32
REMARK   14  A    between atoms: _32  and  _33
REMARK   15  A    between atoms: _35  and  _37
REMARK   16  A    between atoms: _37  and  _38
REMARK   17  A    between atoms: _37  and  _40
REMARK   18  A    between atoms: _40  and  _41
REMARK   19  A    between atoms: _44  and  _46
REMARK   20  A    between atoms: _46  and  _47
REMARK   21  A    between atoms: _46  and  _49
REMARK   22  A    between atoms: _49  and  _50
REMARK   23  A    between atoms: _52  and  _54
REMARK   24  A    between atoms: _54  and  _55
REMARK   25  A    between atoms: _54  and  _57
REMARK   26  A    between atoms: _57  and  _58
REMARK   27  A    between atoms: _60  and  _62
REMARK   28  A    between atoms: _62  and  _63
REMARK   29  A    between atoms: _65  and  _67
REMARK   30  A    between atoms: _67  and  _68
REMARK   31  A    between atoms: _67  and  _70
REMARK   32  A    between atoms: _70  and  _71
REMARK   33  A    between atoms: _73  and  _75
REMARK   34  A    between atoms: _75  and  _76
REMARK   35  A    between atoms: _75  and  _78
REMARK   36  A    between atoms: _78  and  _79
REMARK   37  A    between atoms: _84  and  _86
REMARK   38  A    between atoms: _86  and  _87
REMARK   39  A    between atoms: _86  and  _89
REMARK   40  A    between atoms: _89  and  _90
REMARK   41  A    between atoms: _93  and  _95
REMARK   42  A    between atoms: _95  and  _96
REMARK   43  A    between atoms: _99  and  _101
REMARK   44  A    between atoms: _101  and  _102
REMARK   45  A    between atoms: _101  and  _104
REMARK   46  A    between atoms: _104  and  _105
REMARK   47  A    between atoms: _108  and  _110
REMARK   48  A    between atoms: _110  and  _111
REMARK   49  A    between atoms: _110  and  _113
REMARK   50  A    between atoms: _113  and  _114
REMARK   51  A    between atoms: _120  and  _122
REMARK   52  A    between atoms: _122  and  _123
REMARK   53  A    between atoms: _126  and  _128
REMARK   54  A    between atoms: _128  and  _129
REMARK   55  A    between atoms: _128  and  _131
REMARK   56  A    between atoms: _131  and  _132
REMARK   57  A    between atoms: _135  and  _137
REMARK   58  A    between atoms: _137  and  _138
REMARK   59  A    between atoms: _140  and  _142
REMARK   60  A    between atoms: _142  and  _143
REMARK   61  A    between atoms: _142  and  _145
REMARK   62  A    between atoms: _145  and  _146
REMARK   63  A    between atoms: _146  and  _147
REMARK   64  A    between atoms: _152  and  _154
REMARK   65  A    between atoms: _154  and  _155
REMARK   66  A    between atoms: _157  and  _159
REMARK   67  A    between atoms: _159  and  _160
REMARK   68  A    between atoms: _159  and  _162
REMARK   69  A    between atoms: _162  and  _163
REMARK   70  A    between atoms: _166  and  _168
REMARK   71  A    between atoms: _168  and  _169
REMARK   72  A    between atoms: _168  and  _171
REMARK   73  A    between atoms: _171  and  _172
REMARK   74  A    between atoms: _178  and  _180
REMARK   75  A    between atoms: _180  and  _181
REMARK   76  A    between atoms: _180  and  _183
REMARK   77  A    between atoms: _183  and  _184
REMARK   78  A    between atoms: _187  and  _189
REMARK   79  A    between atoms: _189  and  _190
REMARK   80  A    between atoms: _189  and  _192
REMARK   81  A    between atoms: _192  and  _193
REMARK   82  A    between atoms: _199  and  _201
REMARK   83  A    between atoms: _201  and  _202
REMARK   84  A    between atoms: _201  and  _204
REMARK   85  A    between atoms: _204  and  _205
REMARK   86  A    between atoms: _211  and  _213
REMARK   87  A    between atoms: _213  and  _214
REMARK   88  A    between atoms: _213  and  _216
REMARK   89  A    between atoms: _216  and  _217
REMARK   90  A    between atoms: _220  and  _222
REMARK   91  A    between atoms: _222  and  _223
REMARK   92  A    between atoms: _222  and  _225
REMARK   93  A    between atoms: _225  and  _226
REMARK   94  A    between atoms: _229  and  _231
REMARK   95  A    between atoms: _231  and  _232
REMARK   96  A    between atoms: _231  and  _234
REMARK   97  A    between atoms: _234  and  _235
REMARK   98  A    between atoms: _235  and  _236
REMARK   99  A    between atoms: _236  and  _237
REMARK  100  A    between atoms: _246  and  _248
REMARK  101  A    between atoms: _248  and  _249
REMARK  102  A    between atoms: _248  and  _251
REMARK  103  A    between atoms: _251  and  _252
REMARK  104  A    between atoms: _255  and  _257
REMARK  105  A    between atoms: _257  and  _258
REMARK  106  A    between atoms: _257  and  _260
REMARK  107  A    between atoms: _260  and  _261
REMARK  108  A    between atoms: _263  and  _265
REMARK  109  A    between atoms: _265  and  _266
REMARK  110  A    between atoms: _265  and  _268
REMARK  111  A    between atoms: _268  and  _269
REMARK  112  A    between atoms: _269  and  _270
REMARK  113  A    between atoms: _275  and  _277
REMARK  114  A    between atoms: _277  and  _278
REMARK  115  A    between atoms: _277  and  _280
REMARK  116  A    between atoms: _280  and  _281
REMARK  117  A    between atoms: _283  and  _285
REMARK  118  A    between atoms: _285  and  _286
REMARK  119  A    between atoms: _288  and  _290
REMARK  120  A    between atoms: _290  and  _291
REMARK  121  A    between atoms: _290  and  _293
REMARK  122  A    between atoms: _293  and  _294
REMARK  123  A    between atoms: _299  and  _301
REMARK  124  A    between atoms: _301  and  _302
REMARK  125  A    between atoms: _304  and  _306
REMARK  126  A    between atoms: _306  and  _307
REMARK  127  A    between atoms: _306  and  _309
REMARK  128  A    between atoms: _309  and  _310
REMARK  129  A    between atoms: _315  and  _316
REMARK  130  A    between atoms: _318  and  _320
REMARK  131  A    between atoms: _320  and  _321
REMARK  132  A    between atoms: _320  and  _323
REMARK  133  A    between atoms: _323  and  _324
REMARK  134  A    between atoms: _330  and  _332
REMARK  135  A    between atoms: _332  and  _333
REMARK  136  A    between atoms: _332  and  _335
REMARK  137  A    between atoms: _335  and  _336
REMARK  138  A    between atoms: _339  and  _341
REMARK  139  A    between atoms: _341  and  _342
REMARK  140  A    between atoms: _341  and  _344
REMARK  141  A    between atoms: _344  and  _345
REMARK  142  A    between atoms: _345  and  _346
REMARK  143  A    between atoms: _349  and  _351
REMARK  144  A    between atoms: _351  and  _352
REMARK  145  A    between atoms: _351  and  _354
REMARK  146  A    between atoms: _354  and  _355
REMARK  147  A    between atoms: _358  and  _360
REMARK  148  A    between atoms: _360  and  _361
REMARK  149  A    between atoms: _360  and  _363
REMARK  150  A    between atoms: _363  and  _364
REMARK  151  A    between atoms: _367  and  _369
REMARK  152  A    between atoms: _369  and  _370
REMARK  153  A    between atoms: _372  and  _374
REMARK  154  A    between atoms: _374  and  _375
REMARK  155  A    between atoms: _374  and  _377
REMARK  156  A    between atoms: _380  and  _382
REMARK  157  A    between atoms: _382  and  _383
REMARK  158  A    between atoms: _382  and  _385
REMARK  159  A    between atoms: _385  and  _386
REMARK  160  A    between atoms: _388  and  _390
REMARK  161  A    between atoms: _390  and  _391
REMARK  162  A    between atoms: _390  and  _393
REMARK  163  A    between atoms: _393  and  _394
REMARK  164  A    between atoms: _394  and  _395
REMARK  165  A    between atoms: _397  and  _399
REMARK  166  A    between atoms: _399  and  _400
REMARK  167  A    between atoms: _399  and  _402
REMARK  168  A    between atoms: _402  and  _403
REMARK  169  A    between atoms: _408  and  _409
REMARK  170  A    between atoms: _411  and  _413
REMARK  171  A    between atoms: _413  and  _414
REMARK  172  A    between atoms: _413  and  _416
REMARK  173  A    between atoms: _416  and  _417
REMARK  174  A    between atoms: _420  and  _422
REMARK  175  A    between atoms: _422  and  _423
REMARK  176  A    between atoms: _422  and  _425
REMARK  177  A    between atoms: _425  and  _426
REMARK  178  A    between atoms: _428  and  _430
REMARK  179  A    between atoms: _430  and  _431
REMARK  180  A    between atoms: _430  and  _433
REMARK  181  A    between atoms: _433  and  _434
REMARK  182  A    between atoms: _437  and  _439
REMARK  183  A    between atoms: _439  and  _440
REMARK  184  A    between atoms: _439  and  _442
REMARK  185  A    between atoms: _442  and  _443
REMARK  186  A    between atoms: _448  and  _449
REMARK  187  A    between atoms: _451  and  _453
REMARK  188  A    between atoms: _453  and  _454
REMARK  189  A    between atoms: _453  and  _456
REMARK  190  A    between atoms: _456  and  _457
REMARK  191  A    between atoms: _459  and  _461
REMARK  192  A    between atoms: _461  and  _462
REMARK  193  A    between atoms: _461  and  _464
REMARK  194  A    between atoms: _464  and  _465
REMARK  195  A    between atoms: _471  and  _473
REMARK  196  A    between atoms: _473  and  _474
REMARK  197  A    between atoms: _473  and  _476
REMARK  198  A    between atoms: _476  and  _477
REMARK  199  A    between atoms: _477  and  _478
REMARK  200  A    between atoms: _478  and  _479
REMARK  201  A    between atoms: _488  and  _490
REMARK  202  A    between atoms: _490  and  _491
REMARK  203  A    between atoms: _490  and  _493
REMARK  204  A    between atoms: _496  and  _498
REMARK  205  A    between atoms: _498  and  _499
REMARK  206  A    between atoms: _501  and  _503
REMARK  207  A    between atoms: _503  and  _504
REMARK  208  A    between atoms: _503  and  _506
REMARK  209  A    between atoms: _506  and  _507
REMARK  210  A    between atoms: _510  and  _512
REMARK  211  A    between atoms: _512  and  _513
REMARK  212  A    between atoms: _512  and  _515
REMARK  213  A    between atoms: _515  and  _516
REMARK  214  A    between atoms: _516  and  _517
REMARK  215  A    between atoms: _519  and  _521
REMARK  216  A    between atoms: _521  and  _522
REMARK  217  A    between atoms: _521  and  _524
REMARK  218  A    between atoms: _524  and  _525
REMARK  219  A    between atoms: _531  and  _533
REMARK  220  A    between atoms: _533  and  _534
REMARK  221  A    between atoms: _533  and  _536
REMARK  222  A    between atoms: _536  and  _537
REMARK  223  A    between atoms: _542  and  _544
REMARK  224  A    between atoms: _544  and  _545
REMARK  225  A    between atoms: _544  and  _547
REMARK  226  A    between atoms: _547  and  _548
REMARK  227  A    between atoms: _558  and  _560
REMARK  228  A    between atoms: _560  and  _561
REMARK  229  A    between atoms: _560  and  _563
REMARK  230  A    between atoms: _566  and  _568
REMARK  231  A    between atoms: _568  and  _569
REMARK  232  A    between atoms: _568  and  _571
REMARK  233  A    between atoms: _571  and  _572
REMARK  234  A    between atoms: _575  and  _577
REMARK  235  A    between atoms: _577  and  _578
REMARK  236  A    between atoms: _577  and  _580
REMARK  237  A    between atoms: _580  and  _581
REMARK  238  A    between atoms: _581  and  _582
REMARK  239  A    between atoms: _584  and  _586
REMARK  240  A    between atoms: _586  and  _587
REMARK  241  A    between atoms: _586  and  _589
REMARK  242  A    between atoms: _589  and  _590
REMARK  243  A    between atoms: _593  and  _595
REMARK  244  A    between atoms: _595  and  _596
REMARK  245  A    between atoms: _595  and  _598
REMARK  246  A    between atoms: _598  and  _599
REMARK  247  A    between atoms: _602  and  _604
REMARK  248  A    between atoms: _604  and  _605
REMARK  249  A    between atoms: _607  and  _609
REMARK  250  A    between atoms: _609  and  _610
REMARK  251  A    between atoms: _609  and  _612
REMARK  252  A    between atoms: _612  and  _613
REMARK  253  A    between atoms: _615  and  _617
REMARK  254  A    between atoms: _617  and  _618
REMARK  255  A    between atoms: _617  and  _620
REMARK  256  A    between atoms: _620  and  _621
REMARK  257  A    between atoms: _631  and  _633
REMARK  258  A    between atoms: _633  and  _634
REMARK  259  A    between atoms: _633  and  _636
REMARK  260  A    between atoms: _636  and  _637
REMARK  261  A    between atoms: _639  and  _641
REMARK  262  A    between atoms: _641  and  _642
REMARK  263  A    between atoms: _641  and  _644
REMARK  264  A    between atoms: _644  and  _645
REMARK  265  A    between atoms: _648  and  _650
REMARK  266  A    between atoms: _650  and  _651
REMARK  267  A    between atoms: _654  and  _656
REMARK  268  A    between atoms: _656  and  _657
REMARK  269  A    between atoms: _656  and  _659
REMARK  270  A    between atoms: _659  and  _660
REMARK  271  A    between atoms: _662  and  _664
REMARK  272  A    between atoms: _664  and  _665
REMARK  273  A    between atoms: _664  and  _667
REMARK  274  A    between atoms: _667  and  _668
REMARK  275  A    between atoms: _668  and  _669
REMARK  276  A    between atoms: _673  and  _674
REMARK  277  A    between atoms: _679  and  _681
REMARK  278  A    between atoms: _681  and  _682
REMARK  279  A    between atoms: _681  and  _684
REMARK  280  A    between atoms: _684  and  _685
REMARK  281  A    between atoms: _687  and  _689
REMARK  282  A    between atoms: _689  and  _690
REMARK  283  A    between atoms: _689  and  _692
REMARK  284  A    between atoms: _692  and  _693
REMARK  285  A    between atoms: _693  and  _694
REMARK  286  A    between atoms: _699  and  _701
REMARK  287  A    between atoms: _701  and  _702
REMARK  288  A    between atoms: _701  and  _704
REMARK  289  A    between atoms: _704  and  _705
REMARK  290  A    between atoms: _705  and  _706
REMARK  291  A    between atoms: _711  and  _713
REMARK  292  A    between atoms: _713  and  _714
REMARK  293  A    between atoms: _713  and  _716
REMARK  294  A    between atoms: _716  and  _717
REMARK  295  A    between atoms: _720  and  _722
REMARK  296  A    between atoms: _722  and  _723
REMARK  297  A    between atoms: _722  and  _725
REMARK  298  A    between atoms: _725  and  _726
REMARK  299  A    between atoms: _729  and  _731
REMARK  300  A    between atoms: _731  and  _732
REMARK  301  A    between atoms: _731  and  _734
REMARK  302  A    between atoms: _734  and  _735
REMARK  303  A    between atoms: _741  and  _743
REMARK  304  A    between atoms: _743  and  _744
REMARK  305  A    between atoms: _743  and  _746
REMARK  306  A    between atoms: _746  and  _747
REMARK  307  A    between atoms: _752  and  _753
REMARK  308  A    between atoms: _755  and  _757
REMARK  309  A    between atoms: _757  and  _758
REMARK  310  A    between atoms: _757  and  _760
REMARK  311  A    between atoms: _760  and  _761
REMARK  312  A    between atoms: _767  and  _769
REMARK  313  A    between atoms: _769  and  _770
REMARK  314  A    between atoms: _769  and  _772
REMARK  315  A    between atoms: _772  and  _773
REMARK  316  A    between atoms: _778  and  _780
REMARK  317  A    between atoms: _780  and  _781
REMARK  318  A    between atoms: _780  and  _783
REMARK  319  A    between atoms: _783  and  _784
REMARK  320  A    between atoms: _784  and  _785
REMARK                            x       y       z     vdW  Elec       q    Type
REMARK                         _______ _______ _______ _____ _____    ______ ____
ROOT
ATOM      1  O   HOH     1      19.602  47.179  27.664  0.00  0.00    +0.000 OA
ENDROOT
TORSDOF 0
REMARK  Name = ../refined-set-2016/3drf/3drf_pocket.pdb
REMARK  320 active torsions:
REMARK  status: ('A' for Active; 'I' for Inactive)
REMARK    1  A    between atoms: _1  and  _3
REMARK    2  A    between atoms: _3  and  _4
REMARK    3  A    between atoms: _3  and  _6
REMARK    4  A    between atoms: _6  and  _7
REMARK    5  A    between atoms: _12  and  _13
REMARK    6  A    between atoms: _15  and  _17
REMARK    7  A    between atoms: _17  and  _18
REMARK    8  A    between atoms: _17  and  _20
REMARK    9  A    between atoms: _20  and  _21
REMARK   10  A    between atoms: _21  and  _22
REMARK   11  A    between atoms: _27  and  _29
REMARK   12  A    between atoms: _29  and  _30
REMARK   13  A    between atoms: _29  and  _32
REMARK   14  A    between atoms: _32  and  _33
REMARK   15  A    between atoms: _35  and  _37
REMARK   16  A    between atoms: _37  and  _38
REMARK   17  A    between atoms: _37  and  _40
REMARK   18  A    between atoms: _40  and  _41
REMARK   19  A    between atoms: _44  and  _46
REMARK   20  A    between atoms: _46  and  _47
REMARK   21  A    between atoms: _46  and  _49
REMARK   22  A    between atoms: _49  and  _50
REMARK   23  A    between atoms: _52  and  _54
REMARK   24  A    between atoms: _54  and  _55
REMARK   25  A    between atoms: _54  and  _57
REMARK   26  A    between atoms: _57  and  _58
REMARK   27  A    between atoms: _60  and  _62
REMARK   28  A    between atoms: _62  and  _63
REMARK   29  A    between atoms: _65  and  _67
REMARK   30  A    between atoms: _67  and  _68
REMARK   31  A    between atoms: _67  and  _70
REMARK   32  A    between atoms: _70  and  _71
REMARK   33  A    between atoms: _73  and  _75
REMARK   34  A    between atoms: _75  and  _76
REMARK   35  A    between atoms: _75  and  _78
REMARK   36  A    between atoms: _78  and  _79
REMARK   37  A    between atoms: _84  and  _86
REMARK   38  A    between atoms: _86  and  _87
REMARK   39  A    between atoms: _86  and  _89
REMARK   40  A    between atoms: _89  and  _90
REMARK   41  A    between atoms: _93  and  _95
REMARK   42  A    between atoms: _95  and  _96
REMARK   43  A    between atoms: _99  and  _101
REMARK   44  A    between atoms: _101  and  _102
REMARK   45  A    between atoms: _101  and  _104
REMARK   46  A    between atoms: _104  and  _105
REMARK   47  A    between atoms: _108  and  _110
REMARK   48  A    between atoms: _110  and  _111
REMARK   49  A    between atoms: _110  and  _113
REMARK   50  A    between atoms: _113  and  _114
REMARK   51  A    between atoms: _120  and  _122
REMARK   52  A    between atoms: _122  and  _123
REMARK   53  A    between atoms: _126  and  _128
REMARK   54  A    between atoms: _128  and  _129
REMARK   55  A    between atoms: _128  and  _131
REMARK   56  A    between atoms: _131  and  _132
REMARK   57  A    between atoms: _135  and  _137
REMARK   58  A    between atoms: _137  and  _138
REMARK   59  A    between atoms: _140  and  _142
REMARK   60  A    between atoms: _142  and  _143
REMARK   61  A    between atoms: _142  and  _145
REMARK   62  A    between atoms: _145  and  _146
REMARK   63  A    between atoms: _146  and  _147
REMARK   64  A    between atoms: _152  and  _154
REMARK   65  A    between atoms: _154  and  _155
REMARK   66  A    between atoms: _157  and  _159
REMARK   67  A    between atoms: _159  and  _160
REMARK   68  A    between atoms: _159  and  _162
REMARK   69  A    between atoms: _162  and  _163
REMARK   70  A    between atoms: _166  and  _168
REMARK   71  A    between atoms: _168  and  _169
REMARK   72  A    between atoms: _168  and  _171
REMARK   73  A    between atoms: _171  and  _172
REMARK   74  A    between atoms: _178  and  _180
REMARK   75  A    between atoms: _180  and  _181
REMARK   76  A    between atoms: _180  and  _183
REMARK   77  A    between atoms: _183  and  _184
REMARK   78  A    between atoms: _187  and  _189
REMARK   79  A    between atoms: _189  and  _190
REMARK   80  A    between atoms: _189  and  _192
REMARK   81  A    between atoms: _192  and  _193
REMARK   82  A    between atoms: _199  and  _201
REMARK   83  A    between atoms: _201  and  _202
REMARK   84  A    between atoms: _201  and  _204
REMARK   85  A    between atoms: _204  and  _205
REMARK   86  A    between atoms: _211  and  _213
REMARK   87  A    between atoms: _213  and  _214
REMARK   88  A    between atoms: _213  and  _216
REMARK   89  A    between atoms: _216  and  _217
REMARK   90  A    between atoms: _220  and  _222
REMARK   91  A    between atoms: _222  and  _223
REMARK   92  A    between atoms: _222  and  _225
REMARK   93  A    between atoms: _225  and  _226
REMARK   94  A    between atoms: _229  and  _231
REMARK   95  A    between atoms: _231  and  _232
REMARK   96  A    between atoms: _231  and  _234
REMARK   97  A    between atoms: _234  and  _235
REMARK   98  A    between atoms: _235  and  _236
REMARK   99  A    between atoms: _236  and  _237
REMARK  100  A    between atoms: _246  and  _248
REMARK  101  A    between atoms: _248  and  _249
REMARK  102  A    between atoms: _248  and  _251
REMARK  103  A    between atoms: _251  and  _252
REMARK  104  A    between atoms: _255  and  _257
REMARK  105  A    between atoms: _257  and  _258
REMARK  106  A    between atoms: _257  and  _260
REMARK  107  A    between atoms: _260  and  _261
REMARK  108  A    between atoms: _263  and  _265
REMARK  109  A    between atoms: _265  and  _266
REMARK  110  A    between atoms: _265  and  _268
REMARK  111  A    between atoms: _268  and  _269
REMARK  112  A    between atoms: _269  and  _270
REMARK  113  A    between atoms: _275  and  _277
REMARK  114  A    between atoms: _277  and  _278
REMARK  115  A    between atoms: _277  and  _280
REMARK  116  A    between atoms: _280  and  _281
REMARK  117  A    between atoms: _283  and  _285
REMARK  118  A    between atoms: _285  and  _286
REMARK  119  A    between atoms: _288  and  _290
REMARK  120  A    between atoms: _290  and  _291
REMARK  121  A    between atoms: _290  and  _293
REMARK  122  A    between atoms: _293  and  _294
REMARK  123  A    between atoms: _299  and  _301
REMARK  124  A    between atoms: _301  and  _302
REMARK  125  A    between atoms: _304  and  _306
REMARK  126  A    between atoms: _306  and  _307
REMARK  127  A    between atoms: _306  and  _309
REMARK  128  A    between atoms: _309  and  _310
REMARK  129  A    between atoms: _315  and  _316
REMARK  130  A    between atoms: _318  and  _320
REMARK  131  A    between atoms: _320  and  _321
REMARK  132  A    between atoms: _320  and  _323
REMARK  133  A    between atoms: _323  and  _324
REMARK  134  A    between atoms: _330  and  _332
REMARK  135  A    between atoms: _332  and  _333
REMARK  136  A    between atoms: _332  and  _335
REMARK  137  A    between atoms: _335  and  _336
REMARK  138  A    between atoms: _339  and  _341
REMARK  139  A    between atoms: _341  and  _342
REMARK  140  A    between atoms: _341  and  _344
REMARK  141  A    between atoms: _344  and  _345
REMARK  142  A    between atoms: _345  and  _346
REMARK  143  A    between atoms: _349  and  _351
REMARK  144  A    between atoms: _351  and  _352
REMARK  145  A    between atoms: _351  and  _354
REMARK  146  A    between atoms: _354  and  _355
REMARK  147  A    between atoms: _358  and  _360
REMARK  148  A    between atoms: _360  and  _361
REMARK  149  A    between atoms: _360  and  _363
REMARK  150  A    between atoms: _363  and  _364
REMARK  151  A    between atoms: _367  and  _369
REMARK  152  A    between atoms: _369  and  _370
REMARK  153  A    between atoms: _372  and  _374
REMARK  154  A    between atoms: _374  and  _375
REMARK  155  A    between atoms: _374  and  _377
REMARK  156  A    between atoms: _380  and  _382
REMARK  157  A    between atoms: _382  and  _383
REMARK  158  A    between atoms: _382  and  _385
REMARK  159  A    between atoms: _385  and  _386
REMARK  160  A    between atoms: _388  and  _390
REMARK  161  A    between atoms: _390  and  _391
REMARK  162  A    between atoms: _390  and  _393
REMARK  163  A    between atoms: _393  and  _394
REMARK  164  A    between atoms: _394  and  _395
REMARK  165  A    between atoms: _397  and  _399
REMARK  166  A    between atoms: _399  and  _400
REMARK  167  A    between atoms: _399  and  _402
REMARK  168  A    between atoms: _402  and  _403
REMARK  169  A    between atoms: _408  and  _409
REMARK  170  A    between atoms: _411  and  _413
REMARK  171  A    between atoms: _413  and  _414
REMARK  172  A    between atoms: _413  and  _416
REMARK  173  A    between atoms: _416  and  _417
REMARK  174  A    between atoms: _420  and  _422
REMARK  175  A    between atoms: _422  and  _423
REMARK  176  A    between atoms: _422  and  _425
REMARK  177  A    between atoms: _425  and  _426
REMARK  178  A    between atoms: _428  and  _430
REMARK  179  A    between atoms: _430  and  _431
REMARK  180  A    between atoms: _430  and  _433
REMARK  181  A    between atoms: _433  and  _434
REMARK  182  A    between atoms: _437  and  _439
REMARK  183  A    between atoms: _439  and  _440
REMARK  184  A    between atoms: _439  and  _442
REMARK  185  A    between atoms: _442  and  _443
REMARK  186  A    between atoms: _448  and  _449
REMARK  187  A    between atoms: _451  and  _453
REMARK  188  A    between atoms: _453  and  _454
REMARK  189  A    between atoms: _453  and  _456
REMARK  190  A    between atoms: _456  and  _457
REMARK  191  A    between atoms: _459  and  _461
REMARK  192  A    between atoms: _461  and  _462
REMARK  193  A    between atoms: _461  and  _464
REMARK  194  A    between atoms: _464  and  _465
REMARK  195  A    between atoms: _471  and  _473
REMARK  196  A    between atoms: _473  and  _474
REMARK  197  A    between atoms: _473  and  _476
REMARK  198  A    between atoms: _476  and  _477
REMARK  199  A    between atoms: _477  and  _478
REMARK  200  A    between atoms: _478  and  _479
REMARK  201  A    between atoms: _488  and  _490
REMARK  202  A    between atoms: _490  and  _491
REMARK  203  A    between atoms: _490  and  _493
REMARK  204  A    between atoms: _496  and  _498
REMARK  205  A    between atoms: _498  and  _499
REMARK  206  A    between atoms: _501  and  _503
REMARK  207  A    between atoms: _503  and  _504
REMARK  208  A    between atoms: _503  and  _506
REMARK  209  A    between atoms: _506  and  _507
REMARK  210  A    between atoms: _510  and  _512
REMARK  211  A    between atoms: _512  and  _513
REMARK  212  A    between atoms: _512  and  _515
REMARK  213  A    between atoms: _515  and  _516
REMARK  214  A    between atoms: _516  and  _517
REMARK  215  A    between atoms: _519  and  _521
REMARK  216  A    between atoms: _521  and  _522
REMARK  217  A    between atoms: _521  and  _524
REMARK  218  A    between atoms: _524  and  _525
REMARK  219  A    between atoms: _531  and  _533
REMARK  220  A    between atoms: _533  and  _534
REMARK  221  A    between atoms: _533  and  _536
REMARK  222  A    between atoms: _536  and  _537
REMARK  223  A    between atoms: _542  and  _544
REMARK  224  A    between atoms: _544  and  _545
REMARK  225  A    between atoms: _544  and  _547
REMARK  226  A    between atoms: _547  and  _548
REMARK  227  A    between atoms: _558  and  _560
REMARK  228  A    between atoms: _560  and  _561
REMARK  229  A    between atoms: _560  and  _563
REMARK  230  A    between atoms: _566  and  _568
REMARK  231  A    between atoms: _568  and  _569
REMARK  232  A    between atoms: _568  and  _571
REMARK  233  A    between atoms: _571  and  _572
REMARK  234  A    between atoms: _575  and  _577
REMARK  235  A    between atoms: _577  and  _578
REMARK  236  A    between atoms: _577  and  _580
REMARK  237  A    between atoms: _580  and  _581
REMARK  238  A    between atoms: _581  and  _582
REMARK  239  A    between atoms: _584  and  _586
REMARK  240  A    between atoms: _586  and  _587
REMARK  241  A    between atoms: _586  and  _589
REMARK  242  A    between atoms: _589  and  _590
REMARK  243  A    between atoms: _593  and  _595
REMARK  244  A    between atoms: _595  and  _596
REMARK  245  A    between atoms: _595  and  _598
REMARK  246  A    between atoms: _598  and  _599
REMARK  247  A    between atoms: _602  and  _604
REMARK  248  A    between atoms: _604  and  _605
REMARK  249  A    between atoms: _607  and  _609
REMARK  250  A    between atoms: _609  and  _610
REMARK  251  A    between atoms: _609  and  _612
REMARK  252  A    between atoms: _612  and  _613
REMARK  253  A    between atoms: _615  and  _617
REMARK  254  A    between atoms: _617  and  _618
REMARK  255  A    between atoms: _617  and  _620
REMARK  256  A    between atoms: _620  and  _621
REMARK  257  A    between atoms: _631  and  _633
REMARK  258  A    between atoms: _633  and  _634
REMARK  259  A    between atoms: _633  and  _636
REMARK  260  A    between atoms: _636  and  _637
REMARK  261  A    between atoms: _639  and  _641
REMARK  262  A    between atoms: _641  and  _642
REMARK  263  A    between atoms: _641  and  _644
REMARK  264  A    between atoms: _644  and  _645
REMARK  265  A    between atoms: _648  and  _650
REMARK  266  A    between atoms: _650  and  _651
REMARK  267  A    between atoms: _654  and  _656
REMARK  268  A    between atoms: _656  and  _657
REMARK  269  A    between atoms: _656  and  _659
REMARK  270  A    between atoms: _659  and  _660
REMARK  271  A    between atoms: _662  and  _664
REMARK  272  A    between atoms: _664  and  _665
REMARK  273  A    between atoms: _664  and  _667
REMARK  274  A    between atoms: _667  and  _668
REMARK  275  A    between atoms: _668  and  _669
REMARK  276  A    between atoms: _673  and  _674
REMARK  277  A    between atoms: _679  and  _681
REMARK  278  A    between atoms: _681  and  _682
REMARK  279  A    between atoms: _681  and  _684
REMARK  280  A    between atoms: _684  and  _685
REMARK  281  A    between atoms: _687  and  _689
REMARK  282  A    between atoms: _689  and  _690
REMARK  283  A    between atoms: _689  and  _692
REMARK  284  A    between atoms: _692  and  _693
REMARK  285  A    between atoms: _693  and  _694
REMARK  286  A    between atoms: _699  and  _701
REMARK  287  A    between atoms: _701  and  _702
REMARK  288  A    between atoms: _701  and  _704
REMARK  289  A    between atoms: _704  and  _705
REMARK  290  A    between atoms: _705  and  _706
REMARK  291  A    between atoms: _711  and  _713
REMARK  292  A    between atoms: _713  and  _714
REMARK  293  A    between atoms: _713  and  _716
REMARK  294  A    between atoms: _716  and  _717
REMARK  295  A    between atoms: _720  and  _722
REMARK  296  A    between atoms: _722  and  _723
REMARK  297  A    between atoms: _722  and  _725
REMARK  298  A    between atoms: _725  and  _726
REMARK  299  A    between atoms: _729  and  _731
REMARK  300  A    between atoms: _731  and  _732
REMARK  301  A    between atoms: _731  and  _734
REMARK  302  A    between atoms: _734  and  _735
REMARK  303  A    between atoms: _741  and  _743
REMARK  304  A    between atoms: _743  and  _744
REMARK  305  A    between atoms: _743  and  _746
REMARK  306  A    between atoms: _746  and  _747
REMARK  307  A    between atoms: _752  and  _753
REMARK  308  A    between atoms: _755  and  _757
REMARK  309  A    between atoms: _757  and  _758
REMARK  310  A    between atoms: _757  and  _760
REMARK  311  A    between atoms: _760  and  _761
REMARK  312  A    between atoms: _767  and  _769
REMARK  313  A    between atoms: _769  and  _770
REMARK  314  A    between atoms: _769  and  _772
REMARK  315  A    between atoms: _772  and  _773
REMARK  316  A    between atoms: _778  and  _780
REMARK  317  A    between atoms: _780  and  _781
REMARK  318  A    between atoms: _780  and  _783
REMARK  319  A    between atoms: _783  and  _784
REMARK  320  A    between atoms: _784  and  _785
REMARK                            x       y       z     vdW  Elec       q    Type
REMARK                         _______ _______ _______ _____ _____    ______ ____
ROOT
ATOM      1  O   HOH     1      -3.413  52.105  25.229  0.00  0.00    +0.000 OA
ENDROOT
TORSDOF 0
REMARK  Name = ../refined-set-2016/3drf/3drf_pocket.pdb
REMARK  320 active torsions:
REMARK  status: ('A' for Active; 'I' for Inactive)
REMARK    1  A    between atoms: _1  and  _3
REMARK    2  A    between atoms: _3  and  _4
REMARK    3  A    between atoms: _3  and  _6
REMARK    4  A    between atoms: _6  and  _7
REMARK    5  A    between atoms: _12  and  _13
REMARK    6  A    between atoms: _15  and  _17
REMARK    7  A    between atoms: _17  and  _18
REMARK    8  A    between atoms: _17  and  _20
REMARK    9  A    between atoms: _20  and  _21
REMARK   10  A    between atoms: _21  and  _22
REMARK   11  A    between atoms: _27  and  _29
REMARK   12  A    between atoms: _29  and  _30
REMARK   13  A    between atoms: _29  and  _32
REMARK   14  A    between atoms: _32  and  _33
REMARK   15  A    between atoms: _35  and  _37
REMARK   16  A    between atoms: _37  and  _38
REMARK   17  A    between atoms: _37  and  _40
REMARK   18  A    between atoms: _40  and  _41
REMARK   19  A    between atoms: _44  and  _46
REMARK   20  A    between atoms: _46  and  _47
REMARK   21  A    between atoms: _46  and  _49
REMARK   22  A    between atoms: _49  and  _50
REMARK   23  A    between atoms: _52  and  _54
REMARK   24  A    between atoms: _54  and  _55
REMARK   25  A    between atoms: _54  and  _57
REMARK   26  A    between atoms: _57  and  _58
REMARK   27  A    between atoms: _60  and  _62
REMARK   28  A    between atoms: _62  and  _63
REMARK   29  A    between atoms: _65  and  _67
REMARK   30  A    between atoms: _67  and  _68
REMARK   31  A    between atoms: _67  and  _70
REMARK   32  A    between atoms: _70  and  _71
REMARK   33  A    between atoms: _73  and  _75
REMARK   34  A    between atoms: _75  and  _76
REMARK   35  A    between atoms: _75  and  _78
REMARK   36  A    between atoms: _78  and  _79
REMARK   37  A    between atoms: _84  and  _86
REMARK   38  A    between atoms: _86  and  _87
REMARK   39  A    between atoms: _86  and  _89
REMARK   40  A    between atoms: _89  and  _90
REMARK   41  A    between atoms: _93  and  _95
REMARK   42  A    between atoms: _95  and  _96
REMARK   43  A    between atoms: _99  and  _101
REMARK   44  A    between atoms: _101  and  _102
REMARK   45  A    between atoms: _101  and  _104
REMARK   46  A    between atoms: _104  and  _105
REMARK   47  A    between atoms: _108  and  _110
REMARK   48  A    between atoms: _110  and  _111
REMARK   49  A    between atoms: _110  and  _113
REMARK   50  A    between atoms: _113  and  _114
REMARK   51  A    between atoms: _120  and  _122
REMARK   52  A    between atoms: _122  and  _123
REMARK   53  A    between atoms: _126  and  _128
REMARK   54  A    between atoms: _128  and  _129
REMARK   55  A    between atoms: _128  and  _131
REMARK   56  A    between atoms: _131  and  _132
REMARK   57  A    between atoms: _135  and  _137
REMARK   58  A    between atoms: _137  and  _138
REMARK   59  A    between atoms: _140  and  _142
REMARK   60  A    between atoms: _142  and  _143
REMARK   61  A    between atoms: _142  and  _145
REMARK   62  A    between atoms: _145  and  _146
REMARK   63  A    between atoms: _146  and  _147
REMARK   64  A    between atoms: _152  and  _154
REMARK   65  A    between atoms: _154  and  _155
REMARK   66  A    between atoms: _157  and  _159
REMARK   67  A    between atoms: _159  and  _160
REMARK   68  A    between atoms: _159  and  _162
REMARK   69  A    between atoms: _162  and  _163
REMARK   70  A    between atoms: _166  and  _168
REMARK   71  A    between atoms: _168  and  _169
REMARK   72  A    between atoms: _168  and  _171
REMARK   73  A    between atoms: _171  and  _172
REMARK   74  A    between atoms: _178  and  _180
REMARK   75  A    between atoms: _180  and  _181
REMARK   76  A    between atoms: _180  and  _183
REMARK   77  A    between atoms: _183  and  _184
REMARK   78  A    between atoms: _187  and  _189
REMARK   79  A    between atoms: _189  and  _190
REMARK   80  A    between atoms: _189  and  _192
REMARK   81  A    between atoms: _192  and  _193
REMARK   82  A    between atoms: _199  and  _201
REMARK   83  A    between atoms: _201  and  _202
REMARK   84  A    between atoms: _201  and  _204
REMARK   85  A    between atoms: _204  and  _205
REMARK   86  A    between atoms: _211  and  _213
REMARK   87  A    between atoms: _213  and  _214
REMARK   88  A    between atoms: _213  and  _216
REMARK   89  A    between atoms: _216  and  _217
REMARK   90  A    between atoms: _220  and  _222
REMARK   91  A    between atoms: _222  and  _223
REMARK   92  A    between atoms: _222  and  _225
REMARK   93  A    between atoms: _225  and  _226
REMARK   94  A    between atoms: _229  and  _231
REMARK   95  A    between atoms: _231  and  _232
REMARK   96  A    between atoms: _231  and  _234
REMARK   97  A    between atoms: _234  and  _235
REMARK   98  A    between atoms: _235  and  _236
REMARK   99  A    between atoms: _236  and  _237
REMARK  100  A    between atoms: _246  and  _248
REMARK  101  A    between atoms: _248  and  _249
REMARK  102  A    between atoms: _248  and  _251
REMARK  103  A    between atoms: _251  and  _252
REMARK  104  A    between atoms: _255  and  _257
REMARK  105  A    between atoms: _257  and  _258
REMARK  106  A    between atoms: _257  and  _260
REMARK  107  A    between atoms: _260  and  _261
REMARK  108  A    between atoms: _263  and  _265
REMARK  109  A    between atoms: _265  and  _266
REMARK  110  A    between atoms: _265  and  _268
REMARK  111  A    between atoms: _268  and  _269
REMARK  112  A    between atoms: _269  and  _270
REMARK  113  A    between atoms: _275  and  _277
REMARK  114  A    between atoms: _277  and  _278
REMARK  115  A    between atoms: _277  and  _280
REMARK  116  A    between atoms: _280  and  _281
REMARK  117  A    between atoms: _283  and  _285
REMARK  118  A    between atoms: _285  and  _286
REMARK  119  A    between atoms: _288  and  _290
REMARK  120  A    between atoms: _290  and  _291
REMARK  121  A    between atoms: _290  and  _293
REMARK  122  A    between atoms: _293  and  _294
REMARK  123  A    between atoms: _299  and  _301
REMARK  124  A    between atoms: _301  and  _302
REMARK  125  A    between atoms: _304  and  _306
REMARK  126  A    between atoms: _306  and  _307
REMARK  127  A    between atoms: _306  and  _309
REMARK  128  A    between atoms: _309  and  _310
REMARK  129  A    between atoms: _315  and  _316
REMARK  130  A    between atoms: _318  and  _320
REMARK  131  A    between atoms: _320  and  _321
REMARK  132  A    between atoms: _320  and  _323
REMARK  133  A    between atoms: _323  and  _324
REMARK  134  A    between atoms: _330  and  _332
REMARK  135  A    between atoms: _332  and  _333
REMARK  136  A    between atoms: _332  and  _335
REMARK  137  A    between atoms: _335  and  _336
REMARK  138  A    between atoms: _339  and  _341
REMARK  139  A    between atoms: _341  and  _342
REMARK  140  A    between atoms: _341  and  _344
REMARK  141  A    between atoms: _344  and  _345
REMARK  142  A    between atoms: _345  and  _346
REMARK  143  A    between atoms: _349  and  _351
REMARK  144  A    between atoms: _351  and  _352
REMARK  145  A    between atoms: _351  and  _354
REMARK  146  A    between atoms: _354  and  _355
REMARK  147  A    between atoms: _358  and  _360
REMARK  148  A    between atoms: _360  and  _361
REMARK  149  A    between atoms: _360  and  _363
REMARK  150  A    between atoms: _363  and  _364
REMARK  151  A    between atoms: _367  and  _369
REMARK  152  A    between atoms: _369  and  _370
REMARK  153  A    between atoms: _372  and  _374
REMARK  154  A    between atoms: _374  and  _375
REMARK  155  A    between atoms: _374  and  _377
REMARK  156  A    between atoms: _380  and  _382
REMARK  157  A    between atoms: _382  and  _383
REMARK  158  A    between atoms: _382  and  _385
REMARK  159  A    between atoms: _385  and  _386
REMARK  160  A    between atoms: _388  and  _390
REMARK  161  A    between atoms: _390  and  _391
REMARK  162  A    between atoms: _390  and  _393
REMARK  163  A    between atoms: _393  and  _394
REMARK  164  A    between atoms: _394  and  _395
REMARK  165  A    between atoms: _397  and  _399
REMARK  166  A    between atoms: _399  and  _400
REMARK  167  A    between atoms: _399  and  _402
REMARK  168  A    between atoms: _402  and  _403
REMARK  169  A    between atoms: _408  and  _409
REMARK  170  A    between atoms: _411  and  _413
REMARK  171  A    between atoms: _413  and  _414
REMARK  172  A    between atoms: _413  and  _416
REMARK  173  A    between atoms: _416  and  _417
REMARK  174  A    between atoms: _420  and  _422
REMARK  175  A    between atoms: _422  and  _423
REMARK  176  A    between atoms: _422  and  _425
REMARK  177  A    between atoms: _425  and  _426
REMARK  178  A    between atoms: _428  and  _430
REMARK  179  A    between atoms: _430  and  _431
REMARK  180  A    between atoms: _430  and  _433
REMARK  181  A    between atoms: _433  and  _434
REMARK  182  A    between atoms: _437  and  _439
REMARK  183  A    between atoms: _439  and  _440
REMARK  184  A    between atoms: _439  and  _442
REMARK  185  A    between atoms: _442  and  _443
REMARK  186  A    between atoms: _448  and  _449
REMARK  187  A    between atoms: _451  and  _453
REMARK  188  A    between atoms: _453  and  _454
REMARK  189  A    between atoms: _453  and  _456
REMARK  190  A    between atoms: _456  and  _457
REMARK  191  A    between atoms: _459  and  _461
REMARK  192  A    between atoms: _461  and  _462
REMARK  193  A    between atoms: _461  and  _464
REMARK  194  A    between atoms: _464  and  _465
REMARK  195  A    between atoms: _471  and  _473
REMARK  196  A    between atoms: _473  and  _474
REMARK  197  A    between atoms: _473  and  _476
REMARK  198  A    between atoms: _476  and  _477
REMARK  199  A    between atoms: _477  and  _478
REMARK  200  A    between atoms: _478  and  _479
REMARK  201  A    between atoms: _488  and  _490
REMARK  202  A    between atoms: _490  and  _491
REMARK  203  A    between atoms: _490  and  _493
REMARK  204  A    between atoms: _496  and  _498
REMARK  205  A    between atoms: _498  and  _499
REMARK  206  A    between atoms: _501  and  _503
REMARK  207  A    between atoms: _503  and  _504
REMARK  208  A    between atoms: _503  and  _506
REMARK  209  A    between atoms: _506  and  _507
REMARK  210  A    between atoms: _510  and  _512
REMARK  211  A    between atoms: _512  and  _513
REMARK  212  A    between atoms: _512  and  _515
REMARK  213  A    between atoms: _515  and  _516
REMARK  214  A    between atoms: _516  and  _517
REMARK  215  A    between atoms: _519  and  _521
REMARK  216  A    between atoms: _521  and  _522
REMARK  217  A    between atoms: _521  and  _524
REMARK  218  A    between atoms: _524  and  _525
REMARK  219  A    between atoms: _531  and  _533
REMARK  220  A    between atoms: _533  and  _534
REMARK  221  A    between atoms: _533  and  _536
REMARK  222  A    between atoms: _536  and  _537
REMARK  223  A    between atoms: _542  and  _544
REMARK  224  A    between atoms: _544  and  _545
REMARK  225  A    between atoms: _544  and  _547
REMARK  226  A    between atoms: _547  and  _548
REMARK  227  A    between atoms: _558  and  _560
REMARK  228  A    between atoms: _560  and  _561
REMARK  229  A    between atoms: _560  and  _563
REMARK  230  A    between atoms: _566  and  _568
REMARK  231  A    between atoms: _568  and  _569
REMARK  232  A    between atoms: _568  and  _571
REMARK  233  A    between atoms: _571  and  _572
REMARK  234  A    between atoms: _575  and  _577
REMARK  235  A    between atoms: _577  and  _578
REMARK  236  A    between atoms: _577  and  _580
REMARK  237  A    between atoms: _580  and  _581
REMARK  238  A    between atoms: _581  and  _582
REMARK  239  A    between atoms: _584  and  _586
REMARK  240  A    between atoms: _586  and  _587
REMARK  241  A    between atoms: _586  and  _589
REMARK  242  A    between atoms: _589  and  _590
REMARK  243  A    between atoms: _593  and  _595
REMARK  244  A    between atoms: _595  and  _596
REMARK  245  A    between atoms: _595  and  _598
REMARK  246  A    between atoms: _598  and  _599
REMARK  247  A    between atoms: _602  and  _604
REMARK  248  A    between atoms: _604  and  _605
REMARK  249  A    between atoms: _607  and  _609
REMARK  250  A    between atoms: _609  and  _610
REMARK  251  A    between atoms: _609  and  _612
REMARK  252  A    between atoms: _612  and  _613
REMARK  253  A    between atoms: _615  and  _617
REMARK  254  A    between atoms: _617  and  _618
REMARK  255  A    between atoms: _617  and  _620
REMARK  256  A    between atoms: _620  and  _621
REMARK  257  A    between atoms: _631  and  _633
REMARK  258  A    between atoms: _633  and  _634
REMARK  259  A    between atoms: _633  and  _636
REMARK  260  A    between atoms: _636  and  _637
REMARK  261  A    between atoms: _639  and  _641
REMARK  262  A    between atoms: _641  and  _642
REMARK  263  A    between atoms: _641  and  _644
REMARK  264  A    between atoms: _644  and  _645
REMARK  265  A    between atoms: _648  and  _650
REMARK  266  A    between atoms: _650  and  _651
REMARK  267  A    between atoms: _654  and  _656
REMARK  268  A    between atoms: _656  and  _657
REMARK  269  A    between atoms: _656  and  _659
REMARK  270  A    between atoms: _659  and  _660
REMARK  271  A    between atoms: _662  and  _664
REMARK  272  A    between atoms: _664  and  _665
REMARK  273  A    between atoms: _664  and  _667
REMARK  274  A    between atoms: _667  and  _668
REMARK  275  A    between atoms: _668  and  _669
REMARK  276  A    between atoms: _673  and  _674
REMARK  277  A    between atoms: _679  and  _681
REMARK  278  A    between atoms: _681  and  _682
REMARK  279  A    between atoms: _681  and  _684
REMARK  280  A    between atoms: _684  and  _685
REMARK  281  A    between atoms: _687  and  _689
REMARK  282  A    between atoms: _689  and  _690
REMARK  283  A    between atoms: _689  and  _692
REMARK  284  A    between atoms: _692  and  _693
REMARK  285  A    between atoms: _693  and  _694
REMARK  286  A    between atoms: _699  and  _701
REMARK  287  A    between atoms: _701  and  _702
REMARK  288  A    between atoms: _701  and  _704
REMARK  289  A    between atoms: _704  and  _705
REMARK  290  A    between atoms: _705  and  _706
REMARK  291  A    between atoms: _711  and  _713
REMARK  292  A    between atoms: _713  and  _714
REMARK  293  A    between atoms: _713  and  _716
REMARK  294  A    between atoms: _716  and  _717
REMARK  295  A    between atoms: _720  and  _722
REMARK  296  A    between atoms: _722  and  _723
REMARK  297  A    between atoms: _722  and  _725
REMARK  298  A    between atoms: _725  and  _726
REMARK  299  A    between atoms: _729  and  _731
REMARK  300  A    between atoms: _731  and  _732
REMARK  301  A    between atoms: _731  and  _734
REMARK  302  A    between atoms: _734  and  _735
REMARK  303  A    between atoms: _741  and  _743
REMARK  304  A    between atoms: _743  and  _744
REMARK  305  A    between atoms: _743  and  _746
REMARK  306  A    between atoms: _746  and  _747
REMARK  307  A    between atoms: _752  and  _753
REMARK  308  A    between atoms: _755  and  _757
REMARK  309  A    between atoms: _757  and  _758
REMARK  310  A    between atoms: _757  and  _760
REMARK  311  A    between atoms: _760  and  _761
REMARK  312  A    between atoms: _767  and  _769
REMARK  313  A    between atoms: _769  and  _770
REMARK  314  A    between atoms: _769  and  _772
REMARK  315  A    between atoms: _772  and  _773
REMARK  316  A    between atoms: _778  and  _780
REMARK  317  A    between atoms: _780  and  _781
REMARK  318  A    between atoms: _780  and  _783
REMARK  319  A    between atoms: _783  and  _784
REMARK  320  A    between atoms: _784  and  _785
REMARK                            x       y       z     vdW  Elec       q    Type
REMARK                         _______ _______ _______ _____ _____    ______ ____
ROOT
ATOM      1  O   HOH     1      15.453  49.969  18.039  0.00  0.00    +0.000 OA
ENDROOT
TORSDOF 0
REMARK  Name = ../refined-set-2016/3drf/3drf_pocket.pdb
REMARK  320 active torsions:
REMARK  status: ('A' for Active; 'I' for Inactive)
REMARK    1  A    between atoms: _1  and  _3
REMARK    2  A    between atoms: _3  and  _4
REMARK    3  A    between atoms: _3  and  _6
REMARK    4  A    between atoms: _6  and  _7
REMARK    5  A    between atoms: _12  and  _13
REMARK    6  A    between atoms: _15  and  _17
REMARK    7  A    between atoms: _17  and  _18
REMARK    8  A    between atoms: _17  and  _20
REMARK    9  A    between atoms: _20  and  _21
REMARK   10  A    between atoms: _21  and  _22
REMARK   11  A    between atoms: _27  and  _29
REMARK   12  A    between atoms: _29  and  _30
REMARK   13  A    between atoms: _29  and  _32
REMARK   14  A    between atoms: _32  and  _33
REMARK   15  A    between atoms: _35  and  _37
REMARK   16  A    between atoms: _37  and  _38
REMARK   17  A    between atoms: _37  and  _40
REMARK   18  A    between atoms: _40  and  _41
REMARK   19  A    between atoms: _44  and  _46
REMARK   20  A    between atoms: _46  and  _47
REMARK   21  A    between atoms: _46  and  _49
REMARK   22  A    between atoms: _49  and  _50
REMARK   23  A    between atoms: _52  and  _54
REMARK   24  A    between atoms: _54  and  _55
REMARK   25  A    between atoms: _54  and  _57
REMARK   26  A    between atoms: _57  and  _58
REMARK   27  A    between atoms: _60  and  _62
REMARK   28  A    between atoms: _62  and  _63
REMARK   29  A    between atoms: _65  and  _67
REMARK   30  A    between atoms: _67  and  _68
REMARK   31  A    between atoms: _67  and  _70
REMARK   32  A    between atoms: _70  and  _71
REMARK   33  A    between atoms: _73  and  _75
REMARK   34  A    between atoms: _75  and  _76
REMARK   35  A    between atoms: _75  and  _78
REMARK   36  A    between atoms: _78  and  _79
REMARK   37  A    between atoms: _84  and  _86
REMARK   38  A    between atoms: _86  and  _87
REMARK   39  A    between atoms: _86  and  _89
REMARK   40  A    between atoms: _89  and  _90
REMARK   41  A    between atoms: _93  and  _95
REMARK   42  A    between atoms: _95  and  _96
REMARK   43  A    between atoms: _99  and  _101
REMARK   44  A    between atoms: _101  and  _102
REMARK   45  A    between atoms: _101  and  _104
REMARK   46  A    between atoms: _104  and  _105
REMARK   47  A    between atoms: _108  and  _110
REMARK   48  A    between atoms: _110  and  _111
REMARK   49  A    between atoms: _110  and  _113
REMARK   50  A    between atoms: _113  and  _114
REMARK   51  A    between atoms: _120  and  _122
REMARK   52  A    between atoms: _122  and  _123
REMARK   53  A    between atoms: _126  and  _128
REMARK   54  A    between atoms: _128  and  _129
REMARK   55  A    between atoms: _128  and  _131
REMARK   56  A    between atoms: _131  and  _132
REMARK   57  A    between atoms: _135  and  _137
REMARK   58  A    between atoms: _137  and  _138
REMARK   59  A    between atoms: _140  and  _142
REMARK   60  A    between atoms: _142  and  _143
REMARK   61  A    between atoms: _142  and  _145
REMARK   62  A    between atoms: _145  and  _146
REMARK   63  A    between atoms: _146  and  _147
REMARK   64  A    between atoms: _152  and  _154
REMARK   65  A    between atoms: _154  and  _155
REMARK   66  A    between atoms: _157  and  _159
REMARK   67  A    between atoms: _159  and  _160
REMARK   68  A    between atoms: _159  and  _162
REMARK   69  A    between atoms: _162  and  _163
REMARK   70  A    between atoms: _166  and  _168
REMARK   71  A    between atoms: _168  and  _169
REMARK   72  A    between atoms: _168  and  _171
REMARK   73  A    between atoms: _171  and  _172
REMARK   74  A    between atoms: _178  and  _180
REMARK   75  A    between atoms: _180  and  _181
REMARK   76  A    between atoms: _180  and  _183
REMARK   77  A    between atoms: _183  and  _184
REMARK   78  A    between atoms: _187  and  _189
REMARK   79  A    between atoms: _189  and  _190
REMARK   80  A    between atoms: _189  and  _192
REMARK   81  A    between atoms: _192  and  _193
REMARK   82  A    between atoms: _199  and  _201
REMARK   83  A    between atoms: _201  and  _202
REMARK   84  A    between atoms: _201  and  _204
REMARK   85  A    between atoms: _204  and  _205
REMARK   86  A    between atoms: _211  and  _213
REMARK   87  A    between atoms: _213  and  _214
REMARK   88  A    between atoms: _213  and  _216
REMARK   89  A    between atoms: _216  and  _217
REMARK   90  A    between atoms: _220  and  _222
REMARK   91  A    between atoms: _222  and  _223
REMARK   92  A    between atoms: _222  and  _225
REMARK   93  A    between atoms: _225  and  _226
REMARK   94  A    between atoms: _229  and  _231
REMARK   95  A    between atoms: _231  and  _232
REMARK   96  A    between atoms: _231  and  _234
REMARK   97  A    between atoms: _234  and  _235
REMARK   98  A    between atoms: _235  and  _236
REMARK   99  A    between atoms: _236  and  _237
REMARK  100  A    between atoms: _246  and  _248
REMARK  101  A    between atoms: _248  and  _249
REMARK  102  A    between atoms: _248  and  _251
REMARK  103  A    between atoms: _251  and  _252
REMARK  104  A    between atoms: _255  and  _257
REMARK  105  A    between atoms: _257  and  _258
REMARK  106  A    between atoms: _257  and  _260
REMARK  107  A    between atoms: _260  and  _261
REMARK  108  A    between atoms: _263  and  _265
REMARK  109  A    between atoms: _265  and  _266
REMARK  110  A    between atoms: _265  and  _268
REMARK  111  A    between atoms: _268  and  _269
REMARK  112  A    between atoms: _269  and  _270
REMARK  113  A    between atoms: _275  and  _277
REMARK  114  A    between atoms: _277  and  _278
REMARK  115  A    between atoms: _277  and  _280
REMARK  116  A    between atoms: _280  and  _281
REMARK  117  A    between atoms: _283  and  _285
REMARK  118  A    between atoms: _285  and  _286
REMARK  119  A    between atoms: _288  and  _290
REMARK  120  A    between atoms: _290  and  _291
REMARK  121  A    between atoms: _290  and  _293
REMARK  122  A    between atoms: _293  and  _294
REMARK  123  A    between atoms: _299  and  _301
REMARK  124  A    between atoms: _301  and  _302
REMARK  125  A    between atoms: _304  and  _306
REMARK  126  A    between atoms: _306  and  _307
REMARK  127  A    between atoms: _306  and  _309
REMARK  128  A    between atoms: _309  and  _310
REMARK  129  A    between atoms: _315  and  _316
REMARK  130  A    between atoms: _318  and  _320
REMARK  131  A    between atoms: _320  and  _321
REMARK  132  A    between atoms: _320  and  _323
REMARK  133  A    between atoms: _323  and  _324
REMARK  134  A    between atoms: _330  and  _332
REMARK  135  A    between atoms: _332  and  _333
REMARK  136  A    between atoms: _332  and  _335
REMARK  137  A    between atoms: _335  and  _336
REMARK  138  A    between atoms: _339  and  _341
REMARK  139  A    between atoms: _341  and  _342
REMARK  140  A    between atoms: _341  and  _344
REMARK  141  A    between atoms: _344  and  _345
REMARK  142  A    between atoms: _345  and  _346
REMARK  143  A    between atoms: _349  and  _351
REMARK  144  A    between atoms: _351  and  _352
REMARK  145  A    between atoms: _351  and  _354
REMARK  146  A    between atoms: _354  and  _355
REMARK  147  A    between atoms: _358  and  _360
REMARK  148  A    between atoms: _360  and  _361
REMARK  149  A    between atoms: _360  and  _363
REMARK  150  A    between atoms: _363  and  _364
REMARK  151  A    between atoms: _367  and  _369
REMARK  152  A    between atoms: _369  and  _370
REMARK  153  A    between atoms: _372  and  _374
REMARK  154  A    between atoms: _374  and  _375
REMARK  155  A    between atoms: _374  and  _377
REMARK  156  A    between atoms: _380  and  _382
REMARK  157  A    between atoms: _382  and  _383
REMARK  158  A    between atoms: _382  and  _385
REMARK  159  A    between atoms: _385  and  _386
REMARK  160  A    between atoms: _388  and  _390
REMARK  161  A    between atoms: _390  and  _391
REMARK  162  A    between atoms: _390  and  _393
REMARK  163  A    between atoms: _393  and  _394
REMARK  164  A    between atoms: _394  and  _395
REMARK  165  A    between atoms: _397  and  _399
REMARK  166  A    between atoms: _399  and  _400
REMARK  167  A    between atoms: _399  and  _402
REMARK  168  A    between atoms: _402  and  _403
REMARK  169  A    between atoms: _408  and  _409
REMARK  170  A    between atoms: _411  and  _413
REMARK  171  A    between atoms: _413  and  _414
REMARK  172  A    between atoms: _413  and  _416
REMARK  173  A    between atoms: _416  and  _417
REMARK  174  A    between atoms: _420  and  _422
REMARK  175  A    between atoms: _422  and  _423
REMARK  176  A    between atoms: _422  and  _425
REMARK  177  A    between atoms: _425  and  _426
REMARK  178  A    between atoms: _428  and  _430
REMARK  179  A    between atoms: _430  and  _431
REMARK  180  A    between atoms: _430  and  _433
REMARK  181  A    between atoms: _433  and  _434
REMARK  182  A    between atoms: _437  and  _439
REMARK  183  A    between atoms: _439  and  _440
REMARK  184  A    between atoms: _439  and  _442
REMARK  185  A    between atoms: _442  and  _443
REMARK  186  A    between atoms: _448  and  _449
REMARK  187  A    between atoms: _451  and  _453
REMARK  188  A    between atoms: _453  and  _454
REMARK  189  A    between atoms: _453  and  _456
REMARK  190  A    between atoms: _456  and  _457
REMARK  191  A    between atoms: _459  and  _461
REMARK  192  A    between atoms: _461  and  _462
REMARK  193  A    between atoms: _461  and  _464
REMARK  194  A    between atoms: _464  and  _465
REMARK  195  A    between atoms: _471  and  _473
REMARK  196  A    between atoms: _473  and  _474
REMARK  197  A    between atoms: _473  and  _476
REMARK  198  A    between atoms: _476  and  _477
REMARK  199  A    between atoms: _477  and  _478
REMARK  200  A    between atoms: _478  and  _479
REMARK  201  A    between atoms: _488  and  _490
REMARK  202  A    between atoms: _490  and  _491
REMARK  203  A    between atoms: _490  and  _493
REMARK  204  A    between atoms: _496  and  _498
REMARK  205  A    between atoms: _498  and  _499
REMARK  206  A    between atoms: _501  and  _503
REMARK  207  A    between atoms: _503  and  _504
REMARK  208  A    between atoms: _503  and  _506
REMARK  209  A    between atoms: _506  and  _507
REMARK  210  A    between atoms: _510  and  _512
REMARK  211  A    between atoms: _512  and  _513
REMARK  212  A    between atoms: _512  and  _515
REMARK  213  A    between atoms: _515  and  _516
REMARK  214  A    between atoms: _516  and  _517
REMARK  215  A    between atoms: _519  and  _521
REMARK  216  A    between atoms: _521  and  _522
REMARK  217  A    between atoms: _521  and  _524
REMARK  218  A    between atoms: _524  and  _525
REMARK  219  A    between atoms: _531  and  _533
REMARK  220  A    between atoms: _533  and  _534
REMARK  221  A    between atoms: _533  and  _536
REMARK  222  A    between atoms: _536  and  _537
REMARK  223  A    between atoms: _542  and  _544
REMARK  224  A    between atoms: _544  and  _545
REMARK  225  A    between atoms: _544  and  _547
REMARK  226  A    between atoms: _547  and  _548
REMARK  227  A    between atoms: _558  and  _560
REMARK  228  A    between atoms: _560  and  _561
REMARK  229  A    between atoms: _560  and  _563
REMARK  230  A    between atoms: _566  and  _568
REMARK  231  A    between atoms: _568  and  _569
REMARK  232  A    between atoms: _568  and  _571
REMARK  233  A    between atoms: _571  and  _572
REMARK  234  A    between atoms: _575  and  _577
REMARK  235  A    between atoms: _577  and  _578
REMARK  236  A    between atoms: _577  and  _580
REMARK  237  A    between atoms: _580  and  _581
REMARK  238  A    between atoms: _581  and  _582
REMARK  239  A    between atoms: _584  and  _586
REMARK  240  A    between atoms: _586  and  _587
REMARK  241  A    between atoms: _586  and  _589
REMARK  242  A    between atoms: _589  and  _590
REMARK  243  A    between atoms: _593  and  _595
REMARK  244  A    between atoms: _595  and  _596
REMARK  245  A    between atoms: _595  and  _598
REMARK  246  A    between atoms: _598  and  _599
REMARK  247  A    between atoms: _602  and  _604
REMARK  248  A    between atoms: _604  and  _605
REMARK  249  A    between atoms: _607  and  _609
REMARK  250  A    between atoms: _609  and  _610
REMARK  251  A    between atoms: _609  and  _612
REMARK  252  A    between atoms: _612  and  _613
REMARK  253  A    between atoms: _615  and  _617
REMARK  254  A    between atoms: _617  and  _618
REMARK  255  A    between atoms: _617  and  _620
REMARK  256  A    between atoms: _620  and  _621
REMARK  257  A    between atoms: _631  and  _633
REMARK  258  A    between atoms: _633  and  _634
REMARK  259  A    between atoms: _633  and  _636
REMARK  260  A    between atoms: _636  and  _637
REMARK  261  A    between atoms: _639  and  _641
REMARK  262  A    between atoms: _641  and  _642
REMARK  263  A    between atoms: _641  and  _644
REMARK  264  A    between atoms: _644  and  _645
REMARK  265  A    between atoms: _648  and  _650
REMARK  266  A    between atoms: _650  and  _651
REMARK  267  A    between atoms: _654  and  _656
REMARK  268  A    between atoms: _656  and  _657
REMARK  269  A    between atoms: _656  and  _659
REMARK  270  A    between atoms: _659  and  _660
REMARK  271  A    between atoms: _662  and  _664
REMARK  272  A    between atoms: _664  and  _665
REMARK  273  A    between atoms: _664  and  _667
REMARK  274  A    between atoms: _667  and  _668
REMARK  275  A    between atoms: _668  and  _669
REMARK  276  A    between atoms: _673  and  _674
REMARK  277  A    between atoms: _679  and  _681
REMARK  278  A    between atoms: _681  and  _682
REMARK  279  A    between atoms: _681  and  _684
REMARK  280  A    between atoms: _684  and  _685
REMARK  281  A    between atoms: _687  and  _689
REMARK  282  A    between atoms: _689  and  _690
REMARK  283  A    between atoms: _689  and  _692
REMARK  284  A    between atoms: _692  and  _693
REMARK  285  A    between atoms: _693  and  _694
REMARK  286  A    between atoms: _699  and  _701
REMARK  287  A    between atoms: _701  and  _702
REMARK  288  A    between atoms: _701  and  _704
REMARK  289  A    between atoms: _704  and  _705
REMARK  290  A    between atoms: _705  and  _706
REMARK  291  A    between atoms: _711  and  _713
REMARK  292  A    between atoms: _713  and  _714
REMARK  293  A    between atoms: _713  and  _716
REMARK  294  A    between atoms: _716  and  _717
REMARK  295  A    between atoms: _720  and  _722
REMARK  296  A    between atoms: _722  and  _723
REMARK  297  A    between atoms: _722  and  _725
REMARK  298  A    between atoms: _725  and  _726
REMARK  299  A    between atoms: _729  and  _731
REMARK  300  A    between atoms: _731  and  _732
REMARK  301  A    between atoms: _731  and  _734
REMARK  302  A    between atoms: _734  and  _735
REMARK  303  A    between atoms: _741  and  _743
REMARK  304  A    between atoms: _743  and  _744
REMARK  305  A    between atoms: _743  and  _746
REMARK  306  A    between atoms: _746  and  _747
REMARK  307  A    between atoms: _752  and  _753
REMARK  308  A    between atoms: _755  and  _757
REMARK  309  A    between atoms: _757  and  _758
REMARK  310  A    between atoms: _757  and  _760
REMARK  311  A    between atoms: _760  and  _761
REMARK  312  A    between atoms: _767  and  _769
REMARK  313  A    between atoms: _769  and  _770
REMARK  314  A    between atoms: _769  and  _772
REMARK  315  A    between atoms: _772  and  _773
REMARK  316  A    between atoms: _778  and  _780
REMARK  317  A    between atoms: _780  and  _781
REMARK  318  A    between atoms: _780  and  _783
REMARK  319  A    between atoms: _783  and  _784
REMARK  320  A    between atoms: _784  and  _785
REMARK                            x       y       z     vdW  Elec       q    Type
REMARK                         _______ _______ _______ _____ _____    ______ ____
ROOT
ATOM      1  O   HOH     1      -0.764  46.702  30.795  0.00  0.00    +0.000 OA
ENDROOT
TORSDOF 0
REMARK  Name = ../refined-set-2016/3drf/3drf_pocket.pdb
REMARK  320 active torsions:
REMARK  status: ('A' for Active; 'I' for Inactive)
REMARK    1  A    between atoms: _1  and  _3
REMARK    2  A    between atoms: _3  and  _4
REMARK    3  A    between atoms: _3  and  _6
REMARK    4  A    between atoms: _6  and  _7
REMARK    5  A    between atoms: _12  and  _13
REMARK    6  A    between atoms: _15  and  _17
REMARK    7  A    between atoms: _17  and  _18
REMARK    8  A    between atoms: _17  and  _20
REMARK    9  A    between atoms: _20  and  _21
REMARK   10  A    between atoms: _21  and  _22
REMARK   11  A    between atoms: _27  and  _29
REMARK   12  A    between atoms: _29  and  _30
REMARK   13  A    between atoms: _29  and  _32
REMARK   14  A    between atoms: _32  and  _33
REMARK   15  A    between atoms: _35  and  _37
REMARK   16  A    between atoms: _37  and  _38
REMARK   17  A    between atoms: _37  and  _40
REMARK   18  A    between atoms: _40  and  _41
REMARK   19  A    between atoms: _44  and  _46
REMARK   20  A    between atoms: _46  and  _47
REMARK   21  A    between atoms: _46  and  _49
REMARK   22  A    between atoms: _49  and  _50
REMARK   23  A    between atoms: _52  and  _54
REMARK   24  A    between atoms: _54  and  _55
REMARK   25  A    between atoms: _54  and  _57
REMARK   26  A    between atoms: _57  and  _58
REMARK   27  A    between atoms: _60  and  _62
REMARK   28  A    between atoms: _62  and  _63
REMARK   29  A    between atoms: _65  and  _67
REMARK   30  A    between atoms: _67  and  _68
REMARK   31  A    between atoms: _67  and  _70
REMARK   32  A    between atoms: _70  and  _71
REMARK   33  A    between atoms: _73  and  _75
REMARK   34  A    between atoms: _75  and  _76
REMARK   35  A    between atoms: _75  and  _78
REMARK   36  A    between atoms: _78  and  _79
REMARK   37  A    between atoms: _84  and  _86
REMARK   38  A    between atoms: _86  and  _87
REMARK   39  A    between atoms: _86  and  _89
REMARK   40  A    between atoms: _89  and  _90
REMARK   41  A    between atoms: _93  and  _95
REMARK   42  A    between atoms: _95  and  _96
REMARK   43  A    between atoms: _99  and  _101
REMARK   44  A    between atoms: _101  and  _102
REMARK   45  A    between atoms: _101  and  _104
REMARK   46  A    between atoms: _104  and  _105
REMARK   47  A    between atoms: _108  and  _110
REMARK   48  A    between atoms: _110  and  _111
REMARK   49  A    between atoms: _110  and  _113
REMARK   50  A    between atoms: _113  and  _114
REMARK   51  A    between atoms: _120  and  _122
REMARK   52  A    between atoms: _122  and  _123
REMARK   53  A    between atoms: _126  and  _128
REMARK   54  A    between atoms: _128  and  _129
REMARK   55  A    between atoms: _128  and  _131
REMARK   56  A    between atoms: _131  and  _132
REMARK   57  A    between atoms: _135  and  _137
REMARK   58  A    between atoms: _137  and  _138
REMARK   59  A    between atoms: _140  and  _142
REMARK   60  A    between atoms: _142  and  _143
REMARK   61  A    between atoms: _142  and  _145
REMARK   62  A    between atoms: _145  and  _146
REMARK   63  A    between atoms: _146  and  _147
REMARK   64  A    between atoms: _152  and  _154
REMARK   65  A    between atoms: _154  and  _155
REMARK   66  A    between atoms: _157  and  _159
REMARK   67  A    between atoms: _159  and  _160
REMARK   68  A    between atoms: _159  and  _162
REMARK   69  A    between atoms: _162  and  _163
REMARK   70  A    between atoms: _166  and  _168
REMARK   71  A    between atoms: _168  and  _169
REMARK   72  A    between atoms: _168  and  _171
REMARK   73  A    between atoms: _171  and  _172
REMARK   74  A    between atoms: _178  and  _180
REMARK   75  A    between atoms: _180  and  _181
REMARK   76  A    between atoms: _180  and  _183
REMARK   77  A    between atoms: _183  and  _184
REMARK   78  A    between atoms: _187  and  _189
REMARK   79  A    between atoms: _189  and  _190
REMARK   80  A    between atoms: _189  and  _192
REMARK   81  A    between atoms: _192  and  _193
REMARK   82  A    between atoms: _199  and  _201
REMARK   83  A    between atoms: _201  and  _202
REMARK   84  A    between atoms: _201  and  _204
REMARK   85  A    between atoms: _204  and  _205
REMARK   86  A    between atoms: _211  and  _213
REMARK   87  A    between atoms: _213  and  _214
REMARK   88  A    between atoms: _213  and  _216
REMARK   89  A    between atoms: _216  and  _217
REMARK   90  A    between atoms: _220  and  _222
REMARK   91  A    between atoms: _222  and  _223
REMARK   92  A    between atoms: _222  and  _225
REMARK   93  A    between atoms: _225  and  _226
REMARK   94  A    between atoms: _229  and  _231
REMARK   95  A    between atoms: _231  and  _232
REMARK   96  A    between atoms: _231  and  _234
REMARK   97  A    between atoms: _234  and  _235
REMARK   98  A    between atoms: _235  and  _236
REMARK   99  A    between atoms: _236  and  _237
REMARK  100  A    between atoms: _246  and  _248
REMARK  101  A    between atoms: _248  and  _249
REMARK  102  A    between atoms: _248  and  _251
REMARK  103  A    between atoms: _251  and  _252
REMARK  104  A    between atoms: _255  and  _257
REMARK  105  A    between atoms: _257  and  _258
REMARK  106  A    between atoms: _257  and  _260
REMARK  107  A    between atoms: _260  and  _261
REMARK  108  A    between atoms: _263  and  _265
REMARK  109  A    between atoms: _265  and  _266
REMARK  110  A    between atoms: _265  and  _268
REMARK  111  A    between atoms: _268  and  _269
REMARK  112  A    between atoms: _269  and  _270
REMARK  113  A    between atoms: _275  and  _277
REMARK  114  A    between atoms: _277  and  _278
REMARK  115  A    between atoms: _277  and  _280
REMARK  116  A    between atoms: _280  and  _281
REMARK  117  A    between atoms: _283  and  _285
REMARK  118  A    between atoms: _285  and  _286
REMARK  119  A    between atoms: _288  and  _290
REMARK  120  A    between atoms: _290  and  _291
REMARK  121  A    between atoms: _290  and  _293
REMARK  122  A    between atoms: _293  and  _294
REMARK  123  A    between atoms: _299  and  _301
REMARK  124  A    between atoms: _301  and  _302
REMARK  125  A    between atoms: _304  and  _306
REMARK  126  A    between atoms: _306  and  _307
REMARK  127  A    between atoms: _306  and  _309
REMARK  128  A    between atoms: _309  and  _310
REMARK  129  A    between atoms: _315  and  _316
REMARK  130  A    between atoms: _318  and  _320
REMARK  131  A    between atoms: _320  and  _321
REMARK  132  A    between atoms: _320  and  _323
REMARK  133  A    between atoms: _323  and  _324
REMARK  134  A    between atoms: _330  and  _332
REMARK  135  A    between atoms: _332  and  _333
REMARK  136  A    between atoms: _332  and  _335
REMARK  137  A    between atoms: _335  and  _336
REMARK  138  A    between atoms: _339  and  _341
REMARK  139  A    between atoms: _341  and  _342
REMARK  140  A    between atoms: _341  and  _344
REMARK  141  A    between atoms: _344  and  _345
REMARK  142  A    between atoms: _345  and  _346
REMARK  143  A    between atoms: _349  and  _351
REMARK  144  A    between atoms: _351  and  _352
REMARK  145  A    between atoms: _351  and  _354
REMARK  146  A    between atoms: _354  and  _355
REMARK  147  A    between atoms: _358  and  _360
REMARK  148  A    between atoms: _360  and  _361
REMARK  149  A    between atoms: _360  and  _363
REMARK  150  A    between atoms: _363  and  _364
REMARK  151  A    between atoms: _367  and  _369
REMARK  152  A    between atoms: _369  and  _370
REMARK  153  A    between atoms: _372  and  _374
REMARK  154  A    between atoms: _374  and  _375
REMARK  155  A    between atoms: _374  and  _377
REMARK  156  A    between atoms: _380  and  _382
REMARK  157  A    between atoms: _382  and  _383
REMARK  158  A    between atoms: _382  and  _385
REMARK  159  A    between atoms: _385  and  _386
REMARK  160  A    between atoms: _388  and  _390
REMARK  161  A    between atoms: _390  and  _391
REMARK  162  A    between atoms: _390  and  _393
REMARK  163  A    between atoms: _393  and  _394
REMARK  164  A    between atoms: _394  and  _395
REMARK  165  A    between atoms: _397  and  _399
REMARK  166  A    between atoms: _399  and  _400
REMARK  167  A    between atoms: _399  and  _402
REMARK  168  A    between atoms: _402  and  _403
REMARK  169  A    between atoms: _408  and  _409
REMARK  170  A    between atoms: _411  and  _413
REMARK  171  A    between atoms: _413  and  _414
REMARK  172  A    between atoms: _413  and  _416
REMARK  173  A    between atoms: _416  and  _417
REMARK  174  A    between atoms: _420  and  _422
REMARK  175  A    between atoms: _422  and  _423
REMARK  176  A    between atoms: _422  and  _425
REMARK  177  A    between atoms: _425  and  _426
REMARK  178  A    between atoms: _428  and  _430
REMARK  179  A    between atoms: _430  and  _431
REMARK  180  A    between atoms: _430  and  _433
REMARK  181  A    between atoms: _433  and  _434
REMARK  182  A    between atoms: _437  and  _439
REMARK  183  A    between atoms: _439  and  _440
REMARK  184  A    between atoms: _439  and  _442
REMARK  185  A    between atoms: _442  and  _443
REMARK  186  A    between atoms: _448  and  _449
REMARK  187  A    between atoms: _451  and  _453
REMARK  188  A    between atoms: _453  and  _454
REMARK  189  A    between atoms: _453  and  _456
REMARK  190  A    between atoms: _456  and  _457
REMARK  191  A    between atoms: _459  and  _461
REMARK  192  A    between atoms: _461  and  _462
REMARK  193  A    between atoms: _461  and  _464
REMARK  194  A    between atoms: _464  and  _465
REMARK  195  A    between atoms: _471  and  _473
REMARK  196  A    between atoms: _473  and  _474
REMARK  197  A    between atoms: _473  and  _476
REMARK  198  A    between atoms: _476  and  _477
REMARK  199  A    between atoms: _477  and  _478
REMARK  200  A    between atoms: _478  and  _479
REMARK  201  A    between atoms: _488  and  _490
REMARK  202  A    between atoms: _490  and  _491
REMARK  203  A    between atoms: _490  and  _493
REMARK  204  A    between atoms: _496  and  _498
REMARK  205  A    between atoms: _498  and  _499
REMARK  206  A    between atoms: _501  and  _503
REMARK  207  A    between atoms: _503  and  _504
REMARK  208  A    between atoms: _503  and  _506
REMARK  209  A    between atoms: _506  and  _507
REMARK  210  A    between atoms: _510  and  _512
REMARK  211  A    between atoms: _512  and  _513
REMARK  212  A    between atoms: _512  and  _515
REMARK  213  A    between atoms: _515  and  _516
REMARK  214  A    between atoms: _516  and  _517
REMARK  215  A    between atoms: _519  and  _521
REMARK  216  A    between atoms: _521  and  _522
REMARK  217  A    between atoms: _521  and  _524
REMARK  218  A    between atoms: _524  and  _525
REMARK  219  A    between atoms: _531  and  _533
REMARK  220  A    between atoms: _533  and  _534
REMARK  221  A    between atoms: _533  and  _536
REMARK  222  A    between atoms: _536  and  _537
REMARK  223  A    between atoms: _542  and  _544
REMARK  224  A    between atoms: _544  and  _545
REMARK  225  A    between atoms: _544  and  _547
REMARK  226  A    between atoms: _547  and  _548
REMARK  227  A    between atoms: _558  and  _560
REMARK  228  A    between atoms: _560  and  _561
REMARK  229  A    between atoms: _560  and  _563
REMARK  230  A    between atoms: _566  and  _568
REMARK  231  A    between atoms: _568  and  _569
REMARK  232  A    between atoms: _568  and  _571
REMARK  233  A    between atoms: _571  and  _572
REMARK  234  A    between atoms: _575  and  _577
REMARK  235  A    between atoms: _577  and  _578
REMARK  236  A    between atoms: _577  and  _580
REMARK  237  A    between atoms: _580  and  _581
REMARK  238  A    between atoms: _581  and  _582
REMARK  239  A    between atoms: _584  and  _586
REMARK  240  A    between atoms: _586  and  _587
REMARK  241  A    between atoms: _586  and  _589
REMARK  242  A    between atoms: _589  and  _590
REMARK  243  A    between atoms: _593  and  _595
REMARK  244  A    between atoms: _595  and  _596
REMARK  245  A    between atoms: _595  and  _598
REMARK  246  A    between atoms: _598  and  _599
REMARK  247  A    between atoms: _602  and  _604
REMARK  248  A    between atoms: _604  and  _605
REMARK  249  A    between atoms: _607  and  _609
REMARK  250  A    between atoms: _609  and  _610
REMARK  251  A    between atoms: _609  and  _612
REMARK  252  A    between atoms: _612  and  _613
REMARK  253  A    between atoms: _615  and  _617
REMARK  254  A    between atoms: _617  and  _618
REMARK  255  A    between atoms: _617  and  _620
REMARK  256  A    between atoms: _620  and  _621
REMARK  257  A    between atoms: _631  and  _633
REMARK  258  A    between atoms: _633  and  _634
REMARK  259  A    between atoms: _633  and  _636
REMARK  260  A    between atoms: _636  and  _637
REMARK  261  A    between atoms: _639  and  _641
REMARK  262  A    between atoms: _641  and  _642
REMARK  263  A    between atoms: _641  and  _644
REMARK  264  A    between atoms: _644  and  _645
REMARK  265  A    between atoms: _648  and  _650
REMARK  266  A    between atoms: _650  and  _651
REMARK  267  A    between atoms: _654  and  _656
REMARK  268  A    between atoms: _656  and  _657
REMARK  269  A    between atoms: _656  and  _659
REMARK  270  A    between atoms: _659  and  _660
REMARK  271  A    between atoms: _662  and  _664
REMARK  272  A    between atoms: _664  and  _665
REMARK  273  A    between atoms: _664  and  _667
REMARK  274  A    between atoms: _667  and  _668
REMARK  275  A    between atoms: _668  and  _669
REMARK  276  A    between atoms: _673  and  _674
REMARK  277  A    between atoms: _679  and  _681
REMARK  278  A    between atoms: _681  and  _682
REMARK  279  A    between atoms: _681  and  _684
REMARK  280  A    between atoms: _684  and  _685
REMARK  281  A    between atoms: _687  and  _689
REMARK  282  A    between atoms: _689  and  _690
REMARK  283  A    between atoms: _689  and  _692
REMARK  284  A    between atoms: _692  and  _693
REMARK  285  A    between atoms: _693  and  _694
REMARK  286  A    between atoms: _699  and  _701
REMARK  287  A    between atoms: _701  and  _702
REMARK  288  A    between atoms: _701  and  _704
REMARK  289  A    between atoms: _704  and  _705
REMARK  290  A    between atoms: _705  and  _706
REMARK  291  A    between atoms: _711  and  _713
REMARK  292  A    between atoms: _713  and  _714
REMARK  293  A    between atoms: _713  and  _716
REMARK  294  A    between atoms: _716  and  _717
REMARK  295  A    between atoms: _720  and  _722
REMARK  296  A    between atoms: _722  and  _723
REMARK  297  A    between atoms: _722  and  _725
REMARK  298  A    between atoms: _725  and  _726
REMARK  299  A    between atoms: _729  and  _731
REMARK  300  A    between atoms: _731  and  _732
REMARK  301  A    between atoms: _731  and  _734
REMARK  302  A    between atoms: _734  and  _735
REMARK  303  A    between atoms: _741  and  _743
REMARK  304  A    between atoms: _743  and  _744
REMARK  305  A    between atoms: _743  and  _746
REMARK  306  A    between atoms: _746  and  _747
REMARK  307  A    between atoms: _752  and  _753
REMARK  308  A    between atoms: _755  and  _757
REMARK  309  A    between atoms: _757  and  _758
REMARK  310  A    between atoms: _757  and  _760
REMARK  311  A    between atoms: _760  and  _761
REMARK  312  A    between atoms: _767  and  _769
REMARK  313  A    between atoms: _769  and  _770
REMARK  314  A    between atoms: _769  and  _772
REMARK  315  A    between atoms: _772  and  _773
REMARK  316  A    between atoms: _778  and  _780
REMARK  317  A    between atoms: _780  and  _781
REMARK  318  A    between atoms: _780  and  _783
REMARK  319  A    between atoms: _783  and  _784
REMARK  320  A    between atoms: _784  and  _785
REMARK                            x       y       z     vdW  Elec       q    Type
REMARK                         _______ _______ _______ _____ _____    ______ ____
ROOT
ATOM      1  O   HOH     1      -0.835  53.293  31.856  0.00  0.00    +0.000 OA
ENDROOT
TORSDOF 0
REMARK  Name = ../refined-set-2016/3drf/3drf_pocket.pdb
REMARK  320 active torsions:
REMARK  status: ('A' for Active; 'I' for Inactive)
REMARK    1  A    between atoms: _1  and  _3
REMARK    2  A    between atoms: _3  and  _4
REMARK    3  A    between atoms: _3  and  _6
REMARK    4  A    between atoms: _6  and  _7
REMARK    5  A    between atoms: _12  and  _13
REMARK    6  A    between atoms: _15  and  _17
REMARK    7  A    between atoms: _17  and  _18
REMARK    8  A    between atoms: _17  and  _20
REMARK    9  A    between atoms: _20  and  _21
REMARK   10  A    between atoms: _21  and  _22
REMARK   11  A    between atoms: _27  and  _29
REMARK   12  A    between atoms: _29  and  _30
REMARK   13  A    between atoms: _29  and  _32
REMARK   14  A    between atoms: _32  and  _33
REMARK   15  A    between atoms: _35  and  _37
REMARK   16  A    between atoms: _37  and  _38
REMARK   17  A    between atoms: _37  and  _40
REMARK   18  A    between atoms: _40  and  _41
REMARK   19  A    between atoms: _44  and  _46
REMARK   20  A    between atoms: _46  and  _47
REMARK   21  A    between atoms: _46  and  _49
REMARK   22  A    between atoms: _49  and  _50
REMARK   23  A    between atoms: _52  and  _54
REMARK   24  A    between atoms: _54  and  _55
REMARK   25  A    between atoms: _54  and  _57
REMARK   26  A    between atoms: _57  and  _58
REMARK   27  A    between atoms: _60  and  _62
REMARK   28  A    between atoms: _62  and  _63
REMARK   29  A    between atoms: _65  and  _67
REMARK   30  A    between atoms: _67  and  _68
REMARK   31  A    between atoms: _67  and  _70
REMARK   32  A    between atoms: _70  and  _71
REMARK   33  A    between atoms: _73  and  _75
REMARK   34  A    between atoms: _75  and  _76
REMARK   35  A    between atoms: _75  and  _78
REMARK   36  A    between atoms: _78  and  _79
REMARK   37  A    between atoms: _84  and  _86
REMARK   38  A    between atoms: _86  and  _87
REMARK   39  A    between atoms: _86  and  _89
REMARK   40  A    between atoms: _89  and  _90
REMARK   41  A    between atoms: _93  and  _95
REMARK   42  A    between atoms: _95  and  _96
REMARK   43  A    between atoms: _99  and  _101
REMARK   44  A    between atoms: _101  and  _102
REMARK   45  A    between atoms: _101  and  _104
REMARK   46  A    between atoms: _104  and  _105
REMARK   47  A    between atoms: _108  and  _110
REMARK   48  A    between atoms: _110  and  _111
REMARK   49  A    between atoms: _110  and  _113
REMARK   50  A    between atoms: _113  and  _114
REMARK   51  A    between atoms: _120  and  _122
REMARK   52  A    between atoms: _122  and  _123
REMARK   53  A    between atoms: _126  and  _128
REMARK   54  A    between atoms: _128  and  _129
REMARK   55  A    between atoms: _128  and  _131
REMARK   56  A    between atoms: _131  and  _132
REMARK   57  A    between atoms: _135  and  _137
REMARK   58  A    between atoms: _137  and  _138
REMARK   59  A    between atoms: _140  and  _142
REMARK   60  A    between atoms: _142  and  _143
REMARK   61  A    between atoms: _142  and  _145
REMARK   62  A    between atoms: _145  and  _146
REMARK   63  A    between atoms: _146  and  _147
REMARK   64  A    between atoms: _152  and  _154
REMARK   65  A    between atoms: _154  and  _155
REMARK   66  A    between atoms: _157  and  _159
REMARK   67  A    between atoms: _159  and  _160
REMARK   68  A    between atoms: _159  and  _162
REMARK   69  A    between atoms: _162  and  _163
REMARK   70  A    between atoms: _166  and  _168
REMARK   71  A    between atoms: _168  and  _169
REMARK   72  A    between atoms: _168  and  _171
REMARK   73  A    between atoms: _171  and  _172
REMARK   74  A    between atoms: _178  and  _180
REMARK   75  A    between atoms: _180  and  _181
REMARK   76  A    between atoms: _180  and  _183
REMARK   77  A    between atoms: _183  and  _184
REMARK   78  A    between atoms: _187  and  _189
REMARK   79  A    between atoms: _189  and  _190
REMARK   80  A    between atoms: _189  and  _192
REMARK   81  A    between atoms: _192  and  _193
REMARK   82  A    between atoms: _199  and  _201
REMARK   83  A    between atoms: _201  and  _202
REMARK   84  A    between atoms: _201  and  _204
REMARK   85  A    between atoms: _204  and  _205
REMARK   86  A    between atoms: _211  and  _213
REMARK   87  A    between atoms: _213  and  _214
REMARK   88  A    between atoms: _213  and  _216
REMARK   89  A    between atoms: _216  and  _217
REMARK   90  A    between atoms: _220  and  _222
REMARK   91  A    between atoms: _222  and  _223
REMARK   92  A    between atoms: _222  and  _225
REMARK   93  A    between atoms: _225  and  _226
REMARK   94  A    between atoms: _229  and  _231
REMARK   95  A    between atoms: _231  and  _232
REMARK   96  A    between atoms: _231  and  _234
REMARK   97  A    between atoms: _234  and  _235
REMARK   98  A    between atoms: _235  and  _236
REMARK   99  A    between atoms: _236  and  _237
REMARK  100  A    between atoms: _246  and  _248
REMARK  101  A    between atoms: _248  and  _249
REMARK  102  A    between atoms: _248  and  _251
REMARK  103  A    between atoms: _251  and  _252
REMARK  104  A    between atoms: _255  and  _257
REMARK  105  A    between atoms: _257  and  _258
REMARK  106  A    between atoms: _257  and  _260
REMARK  107  A    between atoms: _260  and  _261
REMARK  108  A    between atoms: _263  and  _265
REMARK  109  A    between atoms: _265  and  _266
REMARK  110  A    between atoms: _265  and  _268
REMARK  111  A    between atoms: _268  and  _269
REMARK  112  A    between atoms: _269  and  _270
REMARK  113  A    between atoms: _275  and  _277
REMARK  114  A    between atoms: _277  and  _278
REMARK  115  A    between atoms: _277  and  _280
REMARK  116  A    between atoms: _280  and  _281
REMARK  117  A    between atoms: _283  and  _285
REMARK  118  A    between atoms: _285  and  _286
REMARK  119  A    between atoms: _288  and  _290
REMARK  120  A    between atoms: _290  and  _291
REMARK  121  A    between atoms: _290  and  _293
REMARK  122  A    between atoms: _293  and  _294
REMARK  123  A    between atoms: _299  and  _301
REMARK  124  A    between atoms: _301  and  _302
REMARK  125  A    between atoms: _304  and  _306
REMARK  126  A    between atoms: _306  and  _307
REMARK  127  A    between atoms: _306  and  _309
REMARK  128  A    between atoms: _309  and  _310
REMARK  129  A    between atoms: _315  and  _316
REMARK  130  A    between atoms: _318  and  _320
REMARK  131  A    between atoms: _320  and  _321
REMARK  132  A    between atoms: _320  and  _323
REMARK  133  A    between atoms: _323  and  _324
REMARK  134  A    between atoms: _330  and  _332
REMARK  135  A    between atoms: _332  and  _333
REMARK  136  A    between atoms: _332  and  _335
REMARK  137  A    between atoms: _335  and  _336
REMARK  138  A    between atoms: _339  and  _341
REMARK  139  A    between atoms: _341  and  _342
REMARK  140  A    between atoms: _341  and  _344
REMARK  141  A    between atoms: _344  and  _345
REMARK  142  A    between atoms: _345  and  _346
REMARK  143  A    between atoms: _349  and  _351
REMARK  144  A    between atoms: _351  and  _352
REMARK  145  A    between atoms: _351  and  _354
REMARK  146  A    between atoms: _354  and  _355
REMARK  147  A    between atoms: _358  and  _360
REMARK  148  A    between atoms: _360  and  _361
REMARK  149  A    between atoms: _360  and  _363
REMARK  150  A    between atoms: _363  and  _364
REMARK  151  A    between atoms: _367  and  _369
REMARK  152  A    between atoms: _369  and  _370
REMARK  153  A    between atoms: _372  and  _374
REMARK  154  A    between atoms: _374  and  _375
REMARK  155  A    between atoms: _374  and  _377
REMARK  156  A    between atoms: _380  and  _382
REMARK  157  A    between atoms: _382  and  _383
REMARK  158  A    between atoms: _382  and  _385
REMARK  159  A    between atoms: _385  and  _386
REMARK  160  A    between atoms: _388  and  _390
REMARK  161  A    between atoms: _390  and  _391
REMARK  162  A    between atoms: _390  and  _393
REMARK  163  A    between atoms: _393  and  _394
REMARK  164  A    between atoms: _394  and  _395
REMARK  165  A    between atoms: _397  and  _399
REMARK  166  A    between atoms: _399  and  _400
REMARK  167  A    between atoms: _399  and  _402
REMARK  168  A    between atoms: _402  and  _403
REMARK  169  A    between atoms: _408  and  _409
REMARK  170  A    between atoms: _411  and  _413
REMARK  171  A    between atoms: _413  and  _414
REMARK  172  A    between atoms: _413  and  _416
REMARK  173  A    between atoms: _416  and  _417
REMARK  174  A    between atoms: _420  and  _422
REMARK  175  A    between atoms: _422  and  _423
REMARK  176  A    between atoms: _422  and  _425
REMARK  177  A    between atoms: _425  and  _426
REMARK  178  A    between atoms: _428  and  _430
REMARK  179  A    between atoms: _430  and  _431
REMARK  180  A    between atoms: _430  and  _433
REMARK  181  A    between atoms: _433  and  _434
REMARK  182  A    between atoms: _437  and  _439
REMARK  183  A    between atoms: _439  and  _440
REMARK  184  A    between atoms: _439  and  _442
REMARK  185  A    between atoms: _442  and  _443
REMARK  186  A    between atoms: _448  and  _449
REMARK  187  A    between atoms: _451  and  _453
REMARK  188  A    between atoms: _453  and  _454
REMARK  189  A    between atoms: _453  and  _456
REMARK  190  A    between atoms: _456  and  _457
REMARK  191  A    between atoms: _459  and  _461
REMARK  192  A    between atoms: _461  and  _462
REMARK  193  A    between atoms: _461  and  _464
REMARK  194  A    between atoms: _464  and  _465
REMARK  195  A    between atoms: _471  and  _473
REMARK  196  A    between atoms: _473  and  _474
REMARK  197  A    between atoms: _473  and  _476
REMARK  198  A    between atoms: _476  and  _477
REMARK  199  A    between atoms: _477  and  _478
REMARK  200  A    between atoms: _478  and  _479
REMARK  201  A    between atoms: _488  and  _490
REMARK  202  A    between atoms: _490  and  _491
REMARK  203  A    between atoms: _490  and  _493
REMARK  204  A    between atoms: _496  and  _498
REMARK  205  A    between atoms: _498  and  _499
REMARK  206  A    between atoms: _501  and  _503
REMARK  207  A    between atoms: _503  and  _504
REMARK  208  A    between atoms: _503  and  _506
REMARK  209  A    between atoms: _506  and  _507
REMARK  210  A    between atoms: _510  and  _512
REMARK  211  A    between atoms: _512  and  _513
REMARK  212  A    between atoms: _512  and  _515
REMARK  213  A    between atoms: _515  and  _516
REMARK  214  A    between atoms: _516  and  _517
REMARK  215  A    between atoms: _519  and  _521
REMARK  216  A    between atoms: _521  and  _522
REMARK  217  A    between atoms: _521  and  _524
REMARK  218  A    between atoms: _524  and  _525
REMARK  219  A    between atoms: _531  and  _533
REMARK  220  A    between atoms: _533  and  _534
REMARK  221  A    between atoms: _533  and  _536
REMARK  222  A    between atoms: _536  and  _537
REMARK  223  A    between atoms: _542  and  _544
REMARK  224  A    between atoms: _544  and  _545
REMARK  225  A    between atoms: _544  and  _547
REMARK  226  A    between atoms: _547  and  _548
REMARK  227  A    between atoms: _558  and  _560
REMARK  228  A    between atoms: _560  and  _561
REMARK  229  A    between atoms: _560  and  _563
REMARK  230  A    between atoms: _566  and  _568
REMARK  231  A    between atoms: _568  and  _569
REMARK  232  A    between atoms: _568  and  _571
REMARK  233  A    between atoms: _571  and  _572
REMARK  234  A    between atoms: _575  and  _577
REMARK  235  A    between atoms: _577  and  _578
REMARK  236  A    between atoms: _577  and  _580
REMARK  237  A    between atoms: _580  and  _581
REMARK  238  A    between atoms: _581  and  _582
REMARK  239  A    between atoms: _584  and  _586
REMARK  240  A    between atoms: _586  and  _587
REMARK  241  A    between atoms: _586  and  _589
REMARK  242  A    between atoms: _589  and  _590
REMARK  243  A    between atoms: _593  and  _595
REMARK  244  A    between atoms: _595  and  _596
REMARK  245  A    between atoms: _595  and  _598
REMARK  246  A    between atoms: _598  and  _599
REMARK  247  A    between atoms: _602  and  _604
REMARK  248  A    between atoms: _604  and  _605
REMARK  249  A    between atoms: _607  and  _609
REMARK  250  A    between atoms: _609  and  _610
REMARK  251  A    between atoms: _609  and  _612
REMARK  252  A    between atoms: _612  and  _613
REMARK  253  A    between atoms: _615  and  _617
REMARK  254  A    between atoms: _617  and  _618
REMARK  255  A    between atoms: _617  and  _620
REMARK  256  A    between atoms: _620  and  _621
REMARK  257  A    between atoms: _631  and  _633
REMARK  258  A    between atoms: _633  and  _634
REMARK  259  A    between atoms: _633  and  _636
REMARK  260  A    between atoms: _636  and  _637
REMARK  261  A    between atoms: _639  and  _641
REMARK  262  A    between atoms: _641  and  _642
REMARK  263  A    between atoms: _641  and  _644
REMARK  264  A    between atoms: _644  and  _645
REMARK  265  A    between atoms: _648  and  _650
REMARK  266  A    between atoms: _650  and  _651
REMARK  267  A    between atoms: _654  and  _656
REMARK  268  A    between atoms: _656  and  _657
REMARK  269  A    between atoms: _656  and  _659
REMARK  270  A    between atoms: _659  and  _660
REMARK  271  A    between atoms: _662  and  _664
REMARK  272  A    between atoms: _664  and  _665
REMARK  273  A    between atoms: _664  and  _667
REMARK  274  A    between atoms: _667  and  _668
REMARK  275  A    between atoms: _668  and  _669
REMARK  276  A    between atoms: _673  and  _674
REMARK  277  A    between atoms: _679  and  _681
REMARK  278  A    between atoms: _681  and  _682
REMARK  279  A    between atoms: _681  and  _684
REMARK  280  A    between atoms: _684  and  _685
REMARK  281  A    between atoms: _687  and  _689
REMARK  282  A    between atoms: _689  and  _690
REMARK  283  A    between atoms: _689  and  _692
REMARK  284  A    between atoms: _692  and  _693
REMARK  285  A    between atoms: _693  and  _694
REMARK  286  A    between atoms: _699  and  _701
REMARK  287  A    between atoms: _701  and  _702
REMARK  288  A    between atoms: _701  and  _704
REMARK  289  A    between atoms: _704  and  _705
REMARK  290  A    between atoms: _705  and  _706
REMARK  291  A    between atoms: _711  and  _713
REMARK  292  A    between atoms: _713  and  _714
REMARK  293  A    between atoms: _713  and  _716
REMARK  294  A    between atoms: _716  and  _717
REMARK  295  A    between atoms: _720  and  _722
REMARK  296  A    between atoms: _722  and  _723
REMARK  297  A    between atoms: _722  and  _725
REMARK  298  A    between atoms: _725  and  _726
REMARK  299  A    between atoms: _729  and  _731
REMARK  300  A    between atoms: _731  and  _732
REMARK  301  A    between atoms: _731  and  _734
REMARK  302  A    between atoms: _734  and  _735
REMARK  303  A    between atoms: _741  and  _743
REMARK  304  A    between atoms: _743  and  _744
REMARK  305  A    between atoms: _743  and  _746
REMARK  306  A    between atoms: _746  and  _747
REMARK  307  A    between atoms: _752  and  _753
REMARK  308  A    between atoms: _755  and  _757
REMARK  309  A    between atoms: _757  and  _758
REMARK  310  A    between atoms: _757  and  _760
REMARK  311  A    between atoms: _760  and  _761
REMARK  312  A    between atoms: _767  and  _769
REMARK  313  A    between atoms: _769  and  _770
REMARK  314  A    between atoms: _769  and  _772
REMARK  315  A    between atoms: _772  and  _773
REMARK  316  A    between atoms: _778  and  _780
REMARK  317  A    between atoms: _780  and  _781
REMARK  318  A    between atoms: _780  and  _783
REMARK  319  A    between atoms: _783  and  _784
REMARK  320  A    between atoms: _784  and  _785
REMARK                            x       y       z     vdW  Elec       q    Type
REMARK                         _______ _______ _______ _____ _____    ______ ____
ROOT
ATOM      1  O   HOH     1      -0.665  49.582  34.494  0.00  0.00    +0.000 OA
ENDROOT
TORSDOF 0
REMARK  Name = ../refined-set-2016/3drf/3drf_pocket.pdb
REMARK  320 active torsions:
REMARK  status: ('A' for Active; 'I' for Inactive)
REMARK    1  A    between atoms: _1  and  _3
REMARK    2  A    between atoms: _3  and  _4
REMARK    3  A    between atoms: _3  and  _6
REMARK    4  A    between atoms: _6  and  _7
REMARK    5  A    between atoms: _12  and  _13
REMARK    6  A    between atoms: _15  and  _17
REMARK    7  A    between atoms: _17  and  _18
REMARK    8  A    between atoms: _17  and  _20
REMARK    9  A    between atoms: _20  and  _21
REMARK   10  A    between atoms: _21  and  _22
REMARK   11  A    between atoms: _27  and  _29
REMARK   12  A    between atoms: _29  and  _30
REMARK   13  A    between atoms: _29  and  _32
REMARK   14  A    between atoms: _32  and  _33
REMARK   15  A    between atoms: _35  and  _37
REMARK   16  A    between atoms: _37  and  _38
REMARK   17  A    between atoms: _37  and  _40
REMARK   18  A    between atoms: _40  and  _41
REMARK   19  A    between atoms: _44  and  _46
REMARK   20  A    between atoms: _46  and  _47
REMARK   21  A    between atoms: _46  and  _49
REMARK   22  A    between atoms: _49  and  _50
REMARK   23  A    between atoms: _52  and  _54
REMARK   24  A    between atoms: _54  and  _55
REMARK   25  A    between atoms: _54  and  _57
REMARK   26  A    between atoms: _57  and  _58
REMARK   27  A    between atoms: _60  and  _62
REMARK   28  A    between atoms: _62  and  _63
REMARK   29  A    between atoms: _65  and  _67
REMARK   30  A    between atoms: _67  and  _68
REMARK   31  A    between atoms: _67  and  _70
REMARK   32  A    between atoms: _70  and  _71
REMARK   33  A    between atoms: _73  and  _75
REMARK   34  A    between atoms: _75  and  _76
REMARK   35  A    between atoms: _75  and  _78
REMARK   36  A    between atoms: _78  and  _79
REMARK   37  A    between atoms: _84  and  _86
REMARK   38  A    between atoms: _86  and  _87
REMARK   39  A    between atoms: _86  and  _89
REMARK   40  A    between atoms: _89  and  _90
REMARK   41  A    between atoms: _93  and  _95
REMARK   42  A    between atoms: _95  and  _96
REMARK   43  A    between atoms: _99  and  _101
REMARK   44  A    between atoms: _101  and  _102
REMARK   45  A    between atoms: _101  and  _104
REMARK   46  A    between atoms: _104  and  _105
REMARK   47  A    between atoms: _108  and  _110
REMARK   48  A    between atoms: _110  and  _111
REMARK   49  A    between atoms: _110  and  _113
REMARK   50  A    between atoms: _113  and  _114
REMARK   51  A    between atoms: _120  and  _122
REMARK   52  A    between atoms: _122  and  _123
REMARK   53  A    between atoms: _126  and  _128
REMARK   54  A    between atoms: _128  and  _129
REMARK   55  A    between atoms: _128  and  _131
REMARK   56  A    between atoms: _131  and  _132
REMARK   57  A    between atoms: _135  and  _137
REMARK   58  A    between atoms: _137  and  _138
REMARK   59  A    between atoms: _140  and  _142
REMARK   60  A    between atoms: _142  and  _143
REMARK   61  A    between atoms: _142  and  _145
REMARK   62  A    between atoms: _145  and  _146
REMARK   63  A    between atoms: _146  and  _147
REMARK   64  A    between atoms: _152  and  _154
REMARK   65  A    between atoms: _154  and  _155
REMARK   66  A    between atoms: _157  and  _159
REMARK   67  A    between atoms: _159  and  _160
REMARK   68  A    between atoms: _159  and  _162
REMARK   69  A    between atoms: _162  and  _163
REMARK   70  A    between atoms: _166  and  _168
REMARK   71  A    between atoms: _168  and  _169
REMARK   72  A    between atoms: _168  and  _171
REMARK   73  A    between atoms: _171  and  _172
REMARK   74  A    between atoms: _178  and  _180
REMARK   75  A    between atoms: _180  and  _181
REMARK   76  A    between atoms: _180  and  _183
REMARK   77  A    between atoms: _183  and  _184
REMARK   78  A    between atoms: _187  and  _189
REMARK   79  A    between atoms: _189  and  _190
REMARK   80  A    between atoms: _189  and  _192
REMARK   81  A    between atoms: _192  and  _193
REMARK   82  A    between atoms: _199  and  _201
REMARK   83  A    between atoms: _201  and  _202
REMARK   84  A    between atoms: _201  and  _204
REMARK   85  A    between atoms: _204  and  _205
REMARK   86  A    between atoms: _211  and  _213
REMARK   87  A    between atoms: _213  and  _214
REMARK   88  A    between atoms: _213  and  _216
REMARK   89  A    between atoms: _216  and  _217
REMARK   90  A    between atoms: _220  and  _222
REMARK   91  A    between atoms: _222  and  _223
REMARK   92  A    between atoms: _222  and  _225
REMARK   93  A    between atoms: _225  and  _226
REMARK   94  A    between atoms: _229  and  _231
REMARK   95  A    between atoms: _231  and  _232
REMARK   96  A    between atoms: _231  and  _234
REMARK   97  A    between atoms: _234  and  _235
REMARK   98  A    between atoms: _235  and  _236
REMARK   99  A    between atoms: _236  and  _237
REMARK  100  A    between atoms: _246  and  _248
REMARK  101  A    between atoms: _248  and  _249
REMARK  102  A    between atoms: _248  and  _251
REMARK  103  A    between atoms: _251  and  _252
REMARK  104  A    between atoms: _255  and  _257
REMARK  105  A    between atoms: _257  and  _258
REMARK  106  A    between atoms: _257  and  _260
REMARK  107  A    between atoms: _260  and  _261
REMARK  108  A    between atoms: _263  and  _265
REMARK  109  A    between atoms: _265  and  _266
REMARK  110  A    between atoms: _265  and  _268
REMARK  111  A    between atoms: _268  and  _269
REMARK  112  A    between atoms: _269  and  _270
REMARK  113  A    between atoms: _275  and  _277
REMARK  114  A    between atoms: _277  and  _278
REMARK  115  A    between atoms: _277  and  _280
REMARK  116  A    between atoms: _280  and  _281
REMARK  117  A    between atoms: _283  and  _285
REMARK  118  A    between atoms: _285  and  _286
REMARK  119  A    between atoms: _288  and  _290
REMARK  120  A    between atoms: _290  and  _291
REMARK  121  A    between atoms: _290  and  _293
REMARK  122  A    between atoms: _293  and  _294
REMARK  123  A    between atoms: _299  and  _301
REMARK  124  A    between atoms: _301  and  _302
REMARK  125  A    between atoms: _304  and  _306
REMARK  126  A    between atoms: _306  and  _307
REMARK  127  A    between atoms: _306  and  _309
REMARK  128  A    between atoms: _309  and  _310
REMARK  129  A    between atoms: _315  and  _316
REMARK  130  A    between atoms: _318  and  _320
REMARK  131  A    between atoms: _320  and  _321
REMARK  132  A    between atoms: _320  and  _323
REMARK  133  A    between atoms: _323  and  _324
REMARK  134  A    between atoms: _330  and  _332
REMARK  135  A    between atoms: _332  and  _333
REMARK  136  A    between atoms: _332  and  _335
REMARK  137  A    between atoms: _335  and  _336
REMARK  138  A    between atoms: _339  and  _341
REMARK  139  A    between atoms: _341  and  _342
REMARK  140  A    between atoms: _341  and  _344
REMARK  141  A    between atoms: _344  and  _345
REMARK  142  A    between atoms: _345  and  _346
REMARK  143  A    between atoms: _349  and  _351
REMARK  144  A    between atoms: _351  and  _352
REMARK  145  A    between atoms: _351  and  _354
REMARK  146  A    between atoms: _354  and  _355
REMARK  147  A    between atoms: _358  and  _360
REMARK  148  A    between atoms: _360  and  _361
REMARK  149  A    between atoms: _360  and  _363
REMARK  150  A    between atoms: _363  and  _364
REMARK  151  A    between atoms: _367  and  _369
REMARK  152  A    between atoms: _369  and  _370
REMARK  153  A    between atoms: _372  and  _374
REMARK  154  A    between atoms: _374  and  _375
REMARK  155  A    between atoms: _374  and  _377
REMARK  156  A    between atoms: _380  and  _382
REMARK  157  A    between atoms: _382  and  _383
REMARK  158  A    between atoms: _382  and  _385
REMARK  159  A    between atoms: _385  and  _386
REMARK  160  A    between atoms: _388  and  _390
REMARK  161  A    between atoms: _390  and  _391
REMARK  162  A    between atoms: _390  and  _393
REMARK  163  A    between atoms: _393  and  _394
REMARK  164  A    between atoms: _394  and  _395
REMARK  165  A    between atoms: _397  and  _399
REMARK  166  A    between atoms: _399  and  _400
REMARK  167  A    between atoms: _399  and  _402
REMARK  168  A    between atoms: _402  and  _403
REMARK  169  A    between atoms: _408  and  _409
REMARK  170  A    between atoms: _411  and  _413
REMARK  171  A    between atoms: _413  and  _414
REMARK  172  A    between atoms: _413  and  _416
REMARK  173  A    between atoms: _416  and  _417
REMARK  174  A    between atoms: _420  and  _422
REMARK  175  A    between atoms: _422  and  _423
REMARK  176  A    between atoms: _422  and  _425
REMARK  177  A    between atoms: _425  and  _426
REMARK  178  A    between atoms: _428  and  _430
REMARK  179  A    between atoms: _430  and  _431
REMARK  180  A    between atoms: _430  and  _433
REMARK  181  A    between atoms: _433  and  _434
REMARK  182  A    between atoms: _437  and  _439
REMARK  183  A    between atoms: _439  and  _440
REMARK  184  A    between atoms: _439  and  _442
REMARK  185  A    between atoms: _442  and  _443
REMARK  186  A    between atoms: _448  and  _449
REMARK  187  A    between atoms: _451  and  _453
REMARK  188  A    between atoms: _453  and  _454
REMARK  189  A    between atoms: _453  and  _456
REMARK  190  A    between atoms: _456  and  _457
REMARK  191  A    between atoms: _459  and  _461
REMARK  192  A    between atoms: _461  and  _462
REMARK  193  A    between atoms: _461  and  _464
REMARK  194  A    between atoms: _464  and  _465
REMARK  195  A    between atoms: _471  and  _473
REMARK  196  A    between atoms: _473  and  _474
REMARK  197  A    between atoms: _473  and  _476
REMARK  198  A    between atoms: _476  and  _477
REMARK  199  A    between atoms: _477  and  _478
REMARK  200  A    between atoms: _478  and  _479
REMARK  201  A    between atoms: _488  and  _490
REMARK  202  A    between atoms: _490  and  _491
REMARK  203  A    between atoms: _490  and  _493
REMARK  204  A    between atoms: _496  and  _498
REMARK  205  A    between atoms: _498  and  _499
REMARK  206  A    between atoms: _501  and  _503
REMARK  207  A    between atoms: _503  and  _504
REMARK  208  A    between atoms: _503  and  _506
REMARK  209  A    between atoms: _506  and  _507
REMARK  210  A    between atoms: _510  and  _512
REMARK  211  A    between atoms: _512  and  _513
REMARK  212  A    between atoms: _512  and  _515
REMARK  213  A    between atoms: _515  and  _516
REMARK  214  A    between atoms: _516  and  _517
REMARK  215  A    between atoms: _519  and  _521
REMARK  216  A    between atoms: _521  and  _522
REMARK  217  A    between atoms: _521  and  _524
REMARK  218  A    between atoms: _524  and  _525
REMARK  219  A    between atoms: _531  and  _533
REMARK  220  A    between atoms: _533  and  _534
REMARK  221  A    between atoms: _533  and  _536
REMARK  222  A    between atoms: _536  and  _537
REMARK  223  A    between atoms: _542  and  _544
REMARK  224  A    between atoms: _544  and  _545
REMARK  225  A    between atoms: _544  and  _547
REMARK  226  A    between atoms: _547  and  _548
REMARK  227  A    between atoms: _558  and  _560
REMARK  228  A    between atoms: _560  and  _561
REMARK  229  A    between atoms: _560  and  _563
REMARK  230  A    between atoms: _566  and  _568
REMARK  231  A    between atoms: _568  and  _569
REMARK  232  A    between atoms: _568  and  _571
REMARK  233  A    between atoms: _571  and  _572
REMARK  234  A    between atoms: _575  and  _577
REMARK  235  A    between atoms: _577  and  _578
REMARK  236  A    between atoms: _577  and  _580
REMARK  237  A    between atoms: _580  and  _581
REMARK  238  A    between atoms: _581  and  _582
REMARK  239  A    between atoms: _584  and  _586
REMARK  240  A    between atoms: _586  and  _587
REMARK  241  A    between atoms: _586  and  _589
REMARK  242  A    between atoms: _589  and  _590
REMARK  243  A    between atoms: _593  and  _595
REMARK  244  A    between atoms: _595  and  _596
REMARK  245  A    between atoms: _595  and  _598
REMARK  246  A    between atoms: _598  and  _599
REMARK  247  A    between atoms: _602  and  _604
REMARK  248  A    between atoms: _604  and  _605
REMARK  249  A    between atoms: _607  and  _609
REMARK  250  A    between atoms: _609  and  _610
REMARK  251  A    between atoms: _609  and  _612
REMARK  252  A    between atoms: _612  and  _613
REMARK  253  A    between atoms: _615  and  _617
REMARK  254  A    between atoms: _617  and  _618
REMARK  255  A    between atoms: _617  and  _620
REMARK  256  A    between atoms: _620  and  _621
REMARK  257  A    between atoms: _631  and  _633
REMARK  258  A    between atoms: _633  and  _634
REMARK  259  A    between atoms: _633  and  _636
REMARK  260  A    between atoms: _636  and  _637
REMARK  261  A    between atoms: _639  and  _641
REMARK  262  A    between atoms: _641  and  _642
REMARK  263  A    between atoms: _641  and  _644
REMARK  264  A    between atoms: _644  and  _645
REMARK  265  A    between atoms: _648  and  _650
REMARK  266  A    between atoms: _650  and  _651
REMARK  267  A    between atoms: _654  and  _656
REMARK  268  A    between atoms: _656  and  _657
REMARK  269  A    between atoms: _656  and  _659
REMARK  270  A    between atoms: _659  and  _660
REMARK  271  A    between atoms: _662  and  _664
REMARK  272  A    between atoms: _664  and  _665
REMARK  273  A    between atoms: _664  and  _667
REMARK  274  A    between atoms: _667  and  _668
REMARK  275  A    between atoms: _668  and  _669
REMARK  276  A    between atoms: _673  and  _674
REMARK  277  A    between atoms: _679  and  _681
REMARK  278  A    between atoms: _681  and  _682
REMARK  279  A    between atoms: _681  and  _684
REMARK  280  A    between atoms: _684  and  _685
REMARK  281  A    between atoms: _687  and  _689
REMARK  282  A    between atoms: _689  and  _690
REMARK  283  A    between atoms: _689  and  _692
REMARK  284  A    between atoms: _692  and  _693
REMARK  285  A    between atoms: _693  and  _694
REMARK  286  A    between atoms: _699  and  _701
REMARK  287  A    between atoms: _701  and  _702
REMARK  288  A    between atoms: _701  and  _704
REMARK  289  A    between atoms: _704  and  _705
REMARK  290  A    between atoms: _705  and  _706
REMARK  291  A    between atoms: _711  and  _713
REMARK  292  A    between atoms: _713  and  _714
REMARK  293  A    between atoms: _713  and  _716
REMARK  294  A    between atoms: _716  and  _717
REMARK  295  A    between atoms: _720  and  _722
REMARK  296  A    between atoms: _722  and  _723
REMARK  297  A    between atoms: _722  and  _725
REMARK  298  A    between atoms: _725  and  _726
REMARK  299  A    between atoms: _729  and  _731
REMARK  300  A    between atoms: _731  and  _732
REMARK  301  A    between atoms: _731  and  _734
REMARK  302  A    between atoms: _734  and  _735
REMARK  303  A    between atoms: _741  and  _743
REMARK  304  A    between atoms: _743  and  _744
REMARK  305  A    between atoms: _743  and  _746
REMARK  306  A    between atoms: _746  and  _747
REMARK  307  A    between atoms: _752  and  _753
REMARK  308  A    between atoms: _755  and  _757
REMARK  309  A    between atoms: _757  and  _758
REMARK  310  A    between atoms: _757  and  _760
REMARK  311  A    between atoms: _760  and  _761
REMARK  312  A    between atoms: _767  and  _769
REMARK  313  A    between atoms: _769  and  _770
REMARK  314  A    between atoms: _769  and  _772
REMARK  315  A    between atoms: _772  and  _773
REMARK  316  A    between atoms: _778  and  _780
REMARK  317  A    between atoms: _780  and  _781
REMARK  318  A    between atoms: _780  and  _783
REMARK  319  A    between atoms: _783  and  _784
REMARK  320  A    between atoms: _784  and  _785
REMARK                            x       y       z     vdW  Elec       q    Type
REMARK                         _______ _______ _______ _____ _____    ______ ____
ROOT
ATOM      1  O   HOH     1      17.936  49.832  19.549  0.00  0.00    +0.000 OA
ENDROOT
TORSDOF 0
REMARK  Name = ../refined-set-2016/3drf/3drf_pocket.pdb
REMARK  320 active torsions:
REMARK  status: ('A' for Active; 'I' for Inactive)
REMARK    1  A    between atoms: _1  and  _3
REMARK    2  A    between atoms: _3  and  _4
REMARK    3  A    between atoms: _3  and  _6
REMARK    4  A    between atoms: _6  and  _7
REMARK    5  A    between atoms: _12  and  _13
REMARK    6  A    between atoms: _15  and  _17
REMARK    7  A    between atoms: _17  and  _18
REMARK    8  A    between atoms: _17  and  _20
REMARK    9  A    between atoms: _20  and  _21
REMARK   10  A    between atoms: _21  and  _22
REMARK   11  A    between atoms: _27  and  _29
REMARK   12  A    between atoms: _29  and  _30
REMARK   13  A    between atoms: _29  and  _32
REMARK   14  A    between atoms: _32  and  _33
REMARK   15  A    between atoms: _35  and  _37
REMARK   16  A    between atoms: _37  and  _38
REMARK   17  A    between atoms: _37  and  _40
REMARK   18  A    between atoms: _40  and  _41
REMARK   19  A    between atoms: _44  and  _46
REMARK   20  A    between atoms: _46  and  _47
REMARK   21  A    between atoms: _46  and  _49
REMARK   22  A    between atoms: _49  and  _50
REMARK   23  A    between atoms: _52  and  _54
REMARK   24  A    between atoms: _54  and  _55
REMARK   25  A    between atoms: _54  and  _57
REMARK   26  A    between atoms: _57  and  _58
REMARK   27  A    between atoms: _60  and  _62
REMARK   28  A    between atoms: _62  and  _63
REMARK   29  A    between atoms: _65  and  _67
REMARK   30  A    between atoms: _67  and  _68
REMARK   31  A    between atoms: _67  and  _70
REMARK   32  A    between atoms: _70  and  _71
REMARK   33  A    between atoms: _73  and  _75
REMARK   34  A    between atoms: _75  and  _76
REMARK   35  A    between atoms: _75  and  _78
REMARK   36  A    between atoms: _78  and  _79
REMARK   37  A    between atoms: _84  and  _86
REMARK   38  A    between atoms: _86  and  _87
REMARK   39  A    between atoms: _86  and  _89
REMARK   40  A    between atoms: _89  and  _90
REMARK   41  A    between atoms: _93  and  _95
REMARK   42  A    between atoms: _95  and  _96
REMARK   43  A    between atoms: _99  and  _101
REMARK   44  A    between atoms: _101  and  _102
REMARK   45  A    between atoms: _101  and  _104
REMARK   46  A    between atoms: _104  and  _105
REMARK   47  A    between atoms: _108  and  _110
REMARK   48  A    between atoms: _110  and  _111
REMARK   49  A    between atoms: _110  and  _113
REMARK   50  A    between atoms: _113  and  _114
REMARK   51  A    between atoms: _120  and  _122
REMARK   52  A    between atoms: _122  and  _123
REMARK   53  A    between atoms: _126  and  _128
REMARK   54  A    between atoms: _128  and  _129
REMARK   55  A    between atoms: _128  and  _131
REMARK   56  A    between atoms: _131  and  _132
REMARK   57  A    between atoms: _135  and  _137
REMARK   58  A    between atoms: _137  and  _138
REMARK   59  A    between atoms: _140  and  _142
REMARK   60  A    between atoms: _142  and  _143
REMARK   61  A    between atoms: _142  and  _145
REMARK   62  A    between atoms: _145  and  _146
REMARK   63  A    between atoms: _146  and  _147
REMARK   64  A    between atoms: _152  and  _154
REMARK   65  A    between atoms: _154  and  _155
REMARK   66  A    between atoms: _157  and  _159
REMARK   67  A    between atoms: _159  and  _160
REMARK   68  A    between atoms: _159  and  _162
REMARK   69  A    between atoms: _162  and  _163
REMARK   70  A    between atoms: _166  and  _168
REMARK   71  A    between atoms: _168  and  _169
REMARK   72  A    between atoms: _168  and  _171
REMARK   73  A    between atoms: _171  and  _172
REMARK   74  A    between atoms: _178  and  _180
REMARK   75  A    between atoms: _180  and  _181
REMARK   76  A    between atoms: _180  and  _183
REMARK   77  A    between atoms: _183  and  _184
REMARK   78  A    between atoms: _187  and  _189
REMARK   79  A    between atoms: _189  and  _190
REMARK   80  A    between atoms: _189  and  _192
REMARK   81  A    between atoms: _192  and  _193
REMARK   82  A    between atoms: _199  and  _201
REMARK   83  A    between atoms: _201  and  _202
REMARK   84  A    between atoms: _201  and  _204
REMARK   85  A    between atoms: _204  and  _205
REMARK   86  A    between atoms: _211  and  _213
REMARK   87  A    between atoms: _213  and  _214
REMARK   88  A    between atoms: _213  and  _216
REMARK   89  A    between atoms: _216  and  _217
REMARK   90  A    between atoms: _220  and  _222
REMARK   91  A    between atoms: _222  and  _223
REMARK   92  A    between atoms: _222  and  _225
REMARK   93  A    between atoms: _225  and  _226
REMARK   94  A    between atoms: _229  and  _231
REMARK   95  A    between atoms: _231  and  _232
REMARK   96  A    between atoms: _231  and  _234
REMARK   97  A    between atoms: _234  and  _235
REMARK   98  A    between atoms: _235  and  _236
REMARK   99  A    between atoms: _236  and  _237
REMARK  100  A    between atoms: _246  and  _248
REMARK  101  A    between atoms: _248  and  _249
REMARK  102  A    between atoms: _248  and  _251
REMARK  103  A    between atoms: _251  and  _252
REMARK  104  A    between atoms: _255  and  _257
REMARK  105  A    between atoms: _257  and  _258
REMARK  106  A    between atoms: _257  and  _260
REMARK  107  A    between atoms: _260  and  _261
REMARK  108  A    between atoms: _263  and  _265
REMARK  109  A    between atoms: _265  and  _266
REMARK  110  A    between atoms: _265  and  _268
REMARK  111  A    between atoms: _268  and  _269
REMARK  112  A    between atoms: _269  and  _270
REMARK  113  A    between atoms: _275  and  _277
REMARK  114  A    between atoms: _277  and  _278
REMARK  115  A    between atoms: _277  and  _280
REMARK  116  A    between atoms: _280  and  _281
REMARK  117  A    between atoms: _283  and  _285
REMARK  118  A    between atoms: _285  and  _286
REMARK  119  A    between atoms: _288  and  _290
REMARK  120  A    between atoms: _290  and  _291
REMARK  121  A    between atoms: _290  and  _293
REMARK  122  A    between atoms: _293  and  _294
REMARK  123  A    between atoms: _299  and  _301
REMARK  124  A    between atoms: _301  and  _302
REMARK  125  A    between atoms: _304  and  _306
REMARK  126  A    between atoms: _306  and  _307
REMARK  127  A    between atoms: _306  and  _309
REMARK  128  A    between atoms: _309  and  _310
REMARK  129  A    between atoms: _315  and  _316
REMARK  130  A    between atoms: _318  and  _320
REMARK  131  A    between atoms: _320  and  _321
REMARK  132  A    between atoms: _320  and  _323
REMARK  133  A    between atoms: _323  and  _324
REMARK  134  A    between atoms: _330  and  _332
REMARK  135  A    between atoms: _332  and  _333
REMARK  136  A    between atoms: _332  and  _335
REMARK  137  A    between atoms: _335  and  _336
REMARK  138  A    between atoms: _339  and  _341
REMARK  139  A    between atoms: _341  and  _342
REMARK  140  A    between atoms: _341  and  _344
REMARK  141  A    between atoms: _344  and  _345
REMARK  142  A    between atoms: _345  and  _346
REMARK  143  A    between atoms: _349  and  _351
REMARK  144  A    between atoms: _351  and  _352
REMARK  145  A    between atoms: _351  and  _354
REMARK  146  A    between atoms: _354  and  _355
REMARK  147  A    between atoms: _358  and  _360
REMARK  148  A    between atoms: _360  and  _361
REMARK  149  A    between atoms: _360  and  _363
REMARK  150  A    between atoms: _363  and  _364
REMARK  151  A    between atoms: _367  and  _369
REMARK  152  A    between atoms: _369  and  _370
REMARK  153  A    between atoms: _372  and  _374
REMARK  154  A    between atoms: _374  and  _375
REMARK  155  A    between atoms: _374  and  _377
REMARK  156  A    between atoms: _380  and  _382
REMARK  157  A    between atoms: _382  and  _383
REMARK  158  A    between atoms: _382  and  _385
REMARK  159  A    between atoms: _385  and  _386
REMARK  160  A    between atoms: _388  and  _390
REMARK  161  A    between atoms: _390  and  _391
REMARK  162  A    between atoms: _390  and  _393
REMARK  163  A    between atoms: _393  and  _394
REMARK  164  A    between atoms: _394  and  _395
REMARK  165  A    between atoms: _397  and  _399
REMARK  166  A    between atoms: _399  and  _400
REMARK  167  A    between atoms: _399  and  _402
REMARK  168  A    between atoms: _402  and  _403
REMARK  169  A    between atoms: _408  and  _409
REMARK  170  A    between atoms: _411  and  _413
REMARK  171  A    between atoms: _413  and  _414
REMARK  172  A    between atoms: _413  and  _416
REMARK  173  A    between atoms: _416  and  _417
REMARK  174  A    between atoms: _420  and  _422
REMARK  175  A    between atoms: _422  and  _423
REMARK  176  A    between atoms: _422  and  _425
REMARK  177  A    between atoms: _425  and  _426
REMARK  178  A    between atoms: _428  and  _430
REMARK  179  A    between atoms: _430  and  _431
REMARK  180  A    between atoms: _430  and  _433
REMARK  181  A    between atoms: _433  and  _434
REMARK  182  A    between atoms: _437  and  _439
REMARK  183  A    between atoms: _439  and  _440
REMARK  184  A    between atoms: _439  and  _442
REMARK  185  A    between atoms: _442  and  _443
REMARK  186  A    between atoms: _448  and  _449
REMARK  187  A    between atoms: _451  and  _453
REMARK  188  A    between atoms: _453  and  _454
REMARK  189  A    between atoms: _453  and  _456
REMARK  190  A    between atoms: _456  and  _457
REMARK  191  A    between atoms: _459  and  _461
REMARK  192  A    between atoms: _461  and  _462
REMARK  193  A    between atoms: _461  and  _464
REMARK  194  A    between atoms: _464  and  _465
REMARK  195  A    between atoms: _471  and  _473
REMARK  196  A    between atoms: _473  and  _474
REMARK  197  A    between atoms: _473  and  _476
REMARK  198  A    between atoms: _476  and  _477
REMARK  199  A    between atoms: _477  and  _478
REMARK  200  A    between atoms: _478  and  _479
REMARK  201  A    between atoms: _488  and  _490
REMARK  202  A    between atoms: _490  and  _491
REMARK  203  A    between atoms: _490  and  _493
REMARK  204  A    between atoms: _496  and  _498
REMARK  205  A    between atoms: _498  and  _499
REMARK  206  A    between atoms: _501  and  _503
REMARK  207  A    between atoms: _503  and  _504
REMARK  208  A    between atoms: _503  and  _506
REMARK  209  A    between atoms: _506  and  _507
REMARK  210  A    between atoms: _510  and  _512
REMARK  211  A    between atoms: _512  and  _513
REMARK  212  A    between atoms: _512  and  _515
REMARK  213  A    between atoms: _515  and  _516
REMARK  214  A    between atoms: _516  and  _517
REMARK  215  A    between atoms: _519  and  _521
REMARK  216  A    between atoms: _521  and  _522
REMARK  217  A    between atoms: _521  and  _524
REMARK  218  A    between atoms: _524  and  _525
REMARK  219  A    between atoms: _531  and  _533
REMARK  220  A    between atoms: _533  and  _534
REMARK  221  A    between atoms: _533  and  _536
REMARK  222  A    between atoms: _536  and  _537
REMARK  223  A    between atoms: _542  and  _544
REMARK  224  A    between atoms: _544  and  _545
REMARK  225  A    between atoms: _544  and  _547
REMARK  226  A    between atoms: _547  and  _548
REMARK  227  A    between atoms: _558  and  _560
REMARK  228  A    between atoms: _560  and  _561
REMARK  229  A    between atoms: _560  and  _563
REMARK  230  A    between atoms: _566  and  _568
REMARK  231  A    between atoms: _568  and  _569
REMARK  232  A    between atoms: _568  and  _571
REMARK  233  A    between atoms: _571  and  _572
REMARK  234  A    between atoms: _575  and  _577
REMARK  235  A    between atoms: _577  and  _578
REMARK  236  A    between atoms: _577  and  _580
REMARK  237  A    between atoms: _580  and  _581
REMARK  238  A    between atoms: _581  and  _582
REMARK  239  A    between atoms: _584  and  _586
REMARK  240  A    between atoms: _586  and  _587
REMARK  241  A    between atoms: _586  and  _589
REMARK  242  A    between atoms: _589  and  _590
REMARK  243  A    between atoms: _593  and  _595
REMARK  244  A    between atoms: _595  and  _596
REMARK  245  A    between atoms: _595  and  _598
REMARK  246  A    between atoms: _598  and  _599
REMARK  247  A    between atoms: _602  and  _604
REMARK  248  A    between atoms: _604  and  _605
REMARK  249  A    between atoms: _607  and  _609
REMARK  250  A    between atoms: _609  and  _610
REMARK  251  A    between atoms: _609  and  _612
REMARK  252  A    between atoms: _612  and  _613
REMARK  253  A    between atoms: _615  and  _617
REMARK  254  A    between atoms: _617  and  _618
REMARK  255  A    between atoms: _617  and  _620
REMARK  256  A    between atoms: _620  and  _621
REMARK  257  A    between atoms: _631  and  _633
REMARK  258  A    between atoms: _633  and  _634
REMARK  259  A    between atoms: _633  and  _636
REMARK  260  A    between atoms: _636  and  _637
REMARK  261  A    between atoms: _639  and  _641
REMARK  262  A    between atoms: _641  and  _642
REMARK  263  A    between atoms: _641  and  _644
REMARK  264  A    between atoms: _644  and  _645
REMARK  265  A    between atoms: _648  and  _650
REMARK  266  A    between atoms: _650  and  _651
REMARK  267  A    between atoms: _654  and  _656
REMARK  268  A    between atoms: _656  and  _657
REMARK  269  A    between atoms: _656  and  _659
REMARK  270  A    between atoms: _659  and  _660
REMARK  271  A    between atoms: _662  and  _664
REMARK  272  A    between atoms: _664  and  _665
REMARK  273  A    between atoms: _664  and  _667
REMARK  274  A    between atoms: _667  and  _668
REMARK  275  A    between atoms: _668  and  _669
REMARK  276  A    between atoms: _673  and  _674
REMARK  277  A    between atoms: _679  and  _681
REMARK  278  A    between atoms: _681  and  _682
REMARK  279  A    between atoms: _681  and  _684
REMARK  280  A    between atoms: _684  and  _685
REMARK  281  A    between atoms: _687  and  _689
REMARK  282  A    between atoms: _689  and  _690
REMARK  283  A    between atoms: _689  and  _692
REMARK  284  A    between atoms: _692  and  _693
REMARK  285  A    between atoms: _693  and  _694
REMARK  286  A    between atoms: _699  and  _701
REMARK  287  A    between atoms: _701  and  _702
REMARK  288  A    between atoms: _701  and  _704
REMARK  289  A    between atoms: _704  and  _705
REMARK  290  A    between atoms: _705  and  _706
REMARK  291  A    between atoms: _711  and  _713
REMARK  292  A    between atoms: _713  and  _714
REMARK  293  A    between atoms: _713  and  _716
REMARK  294  A    between atoms: _716  and  _717
REMARK  295  A    between atoms: _720  and  _722
REMARK  296  A    between atoms: _722  and  _723
REMARK  297  A    between atoms: _722  and  _725
REMARK  298  A    between atoms: _725  and  _726
REMARK  299  A    between atoms: _729  and  _731
REMARK  300  A    between atoms: _731  and  _732
REMARK  301  A    between atoms: _731  and  _734
REMARK  302  A    between atoms: _734  and  _735
REMARK  303  A    between atoms: _741  and  _743
REMARK  304  A    between atoms: _743  and  _744
REMARK  305  A    between atoms: _743  and  _746
REMARK  306  A    between atoms: _746  and  _747
REMARK  307  A    between atoms: _752  and  _753
REMARK  308  A    between atoms: _755  and  _757
REMARK  309  A    between atoms: _757  and  _758
REMARK  310  A    between atoms: _757  and  _760
REMARK  311  A    between atoms: _760  and  _761
REMARK  312  A    between atoms: _767  and  _769
REMARK  313  A    between atoms: _769  and  _770
REMARK  314  A    between atoms: _769  and  _772
REMARK  315  A    between atoms: _772  and  _773
REMARK  316  A    between atoms: _778  and  _780
REMARK  317  A    between atoms: _780  and  _781
REMARK  318  A    between atoms: _780  and  _783
REMARK  319  A    between atoms: _783  and  _784
REMARK  320  A    between atoms: _784  and  _785
REMARK                            x       y       z     vdW  Elec       q    Type
REMARK                         _______ _______ _______ _____ _____    ______ ____
ROOT
ATOM      1  O   HOH     1      -0.174  56.618  22.654  0.00  0.00    +0.000 OA
ENDROOT
TORSDOF 0
REMARK  Name = ../refined-set-2016/3drf/3drf_pocket.pdb
REMARK  320 active torsions:
REMARK  status: ('A' for Active; 'I' for Inactive)
REMARK    1  A    between atoms: _1  and  _3
REMARK    2  A    between atoms: _3  and  _4
REMARK    3  A    between atoms: _3  and  _6
REMARK    4  A    between atoms: _6  and  _7
REMARK    5  A    between atoms: _12  and  _13
REMARK    6  A    between atoms: _15  and  _17
REMARK    7  A    between atoms: _17  and  _18
REMARK    8  A    between atoms: _17  and  _20
REMARK    9  A    between atoms: _20  and  _21
REMARK   10  A    between atoms: _21  and  _22
REMARK   11  A    between atoms: _27  and  _29
REMARK   12  A    between atoms: _29  and  _30
REMARK   13  A    between atoms: _29  and  _32
REMARK   14  A    between atoms: _32  and  _33
REMARK   15  A    between atoms: _35  and  _37
REMARK   16  A    between atoms: _37  and  _38
REMARK   17  A    between atoms: _37  and  _40
REMARK   18  A    between atoms: _40  and  _41
REMARK   19  A    between atoms: _44  and  _46
REMARK   20  A    between atoms: _46  and  _47
REMARK   21  A    between atoms: _46  and  _49
REMARK   22  A    between atoms: _49  and  _50
REMARK   23  A    between atoms: _52  and  _54
REMARK   24  A    between atoms: _54  and  _55
REMARK   25  A    between atoms: _54  and  _57
REMARK   26  A    between atoms: _57  and  _58
REMARK   27  A    between atoms: _60  and  _62
REMARK   28  A    between atoms: _62  and  _63
REMARK   29  A    between atoms: _65  and  _67
REMARK   30  A    between atoms: _67  and  _68
REMARK   31  A    between atoms: _67  and  _70
REMARK   32  A    between atoms: _70  and  _71
REMARK   33  A    between atoms: _73  and  _75
REMARK   34  A    between atoms: _75  and  _76
REMARK   35  A    between atoms: _75  and  _78
REMARK   36  A    between atoms: _78  and  _79
REMARK   37  A    between atoms: _84  and  _86
REMARK   38  A    between atoms: _86  and  _87
REMARK   39  A    between atoms: _86  and  _89
REMARK   40  A    between atoms: _89  and  _90
REMARK   41  A    between atoms: _93  and  _95
REMARK   42  A    between atoms: _95  and  _96
REMARK   43  A    between atoms: _99  and  _101
REMARK   44  A    between atoms: _101  and  _102
REMARK   45  A    between atoms: _101  and  _104
REMARK   46  A    between atoms: _104  and  _105
REMARK   47  A    between atoms: _108  and  _110
REMARK   48  A    between atoms: _110  and  _111
REMARK   49  A    between atoms: _110  and  _113
REMARK   50  A    between atoms: _113  and  _114
REMARK   51  A    between atoms: _120  and  _122
REMARK   52  A    between atoms: _122  and  _123
REMARK   53  A    between atoms: _126  and  _128
REMARK   54  A    between atoms: _128  and  _129
REMARK   55  A    between atoms: _128  and  _131
REMARK   56  A    between atoms: _131  and  _132
REMARK   57  A    between atoms: _135  and  _137
REMARK   58  A    between atoms: _137  and  _138
REMARK   59  A    between atoms: _140  and  _142
REMARK   60  A    between atoms: _142  and  _143
REMARK   61  A    between atoms: _142  and  _145
REMARK   62  A    between atoms: _145  and  _146
REMARK   63  A    between atoms: _146  and  _147
REMARK   64  A    between atoms: _152  and  _154
REMARK   65  A    between atoms: _154  and  _155
REMARK   66  A    between atoms: _157  and  _159
REMARK   67  A    between atoms: _159  and  _160
REMARK   68  A    between atoms: _159  and  _162
REMARK   69  A    between atoms: _162  and  _163
REMARK   70  A    between atoms: _166  and  _168
REMARK   71  A    between atoms: _168  and  _169
REMARK   72  A    between atoms: _168  and  _171
REMARK   73  A    between atoms: _171  and  _172
REMARK   74  A    between atoms: _178  and  _180
REMARK   75  A    between atoms: _180  and  _181
REMARK   76  A    between atoms: _180  and  _183
REMARK   77  A    between atoms: _183  and  _184
REMARK   78  A    between atoms: _187  and  _189
REMARK   79  A    between atoms: _189  and  _190
REMARK   80  A    between atoms: _189  and  _192
REMARK   81  A    between atoms: _192  and  _193
REMARK   82  A    between atoms: _199  and  _201
REMARK   83  A    between atoms: _201  and  _202
REMARK   84  A    between atoms: _201  and  _204
REMARK   85  A    between atoms: _204  and  _205
REMARK   86  A    between atoms: _211  and  _213
REMARK   87  A    between atoms: _213  and  _214
REMARK   88  A    between atoms: _213  and  _216
REMARK   89  A    between atoms: _216  and  _217
REMARK   90  A    between atoms: _220  and  _222
REMARK   91  A    between atoms: _222  and  _223
REMARK   92  A    between atoms: _222  and  _225
REMARK   93  A    between atoms: _225  and  _226
REMARK   94  A    between atoms: _229  and  _231
REMARK   95  A    between atoms: _231  and  _232
REMARK   96  A    between atoms: _231  and  _234
REMARK   97  A    between atoms: _234  and  _235
REMARK   98  A    between atoms: _235  and  _236
REMARK   99  A    between atoms: _236  and  _237
REMARK  100  A    between atoms: _246  and  _248
REMARK  101  A    between atoms: _248  and  _249
REMARK  102  A    between atoms: _248  and  _251
REMARK  103  A    between atoms: _251  and  _252
REMARK  104  A    between atoms: _255  and  _257
REMARK  105  A    between atoms: _257  and  _258
REMARK  106  A    between atoms: _257  and  _260
REMARK  107  A    between atoms: _260  and  _261
REMARK  108  A    between atoms: _263  and  _265
REMARK  109  A    between atoms: _265  and  _266
REMARK  110  A    between atoms: _265  and  _268
REMARK  111  A    between atoms: _268  and  _269
REMARK  112  A    between atoms: _269  and  _270
REMARK  113  A    between atoms: _275  and  _277
REMARK  114  A    between atoms: _277  and  _278
REMARK  115  A    between atoms: _277  and  _280
REMARK  116  A    between atoms: _280  and  _281
REMARK  117  A    between atoms: _283  and  _285
REMARK  118  A    between atoms: _285  and  _286
REMARK  119  A    between atoms: _288  and  _290
REMARK  120  A    between atoms: _290  and  _291
REMARK  121  A    between atoms: _290  and  _293
REMARK  122  A    between atoms: _293  and  _294
REMARK  123  A    between atoms: _299  and  _301
REMARK  124  A    between atoms: _301  and  _302
REMARK  125  A    between atoms: _304  and  _306
REMARK  126  A    between atoms: _306  and  _307
REMARK  127  A    between atoms: _306  and  _309
REMARK  128  A    between atoms: _309  and  _310
REMARK  129  A    between atoms: _315  and  _316
REMARK  130  A    between atoms: _318  and  _320
REMARK  131  A    between atoms: _320  and  _321
REMARK  132  A    between atoms: _320  and  _323
REMARK  133  A    between atoms: _323  and  _324
REMARK  134  A    between atoms: _330  and  _332
REMARK  135  A    between atoms: _332  and  _333
REMARK  136  A    between atoms: _332  and  _335
REMARK  137  A    between atoms: _335  and  _336
REMARK  138  A    between atoms: _339  and  _341
REMARK  139  A    between atoms: _341  and  _342
REMARK  140  A    between atoms: _341  and  _344
REMARK  141  A    between atoms: _344  and  _345
REMARK  142  A    between atoms: _345  and  _346
REMARK  143  A    between atoms: _349  and  _351
REMARK  144  A    between atoms: _351  and  _352
REMARK  145  A    between atoms: _351  and  _354
REMARK  146  A    between atoms: _354  and  _355
REMARK  147  A    between atoms: _358  and  _360
REMARK  148  A    between atoms: _360  and  _361
REMARK  149  A    between atoms: _360  and  _363
REMARK  150  A    between atoms: _363  and  _364
REMARK  151  A    between atoms: _367  and  _369
REMARK  152  A    between atoms: _369  and  _370
REMARK  153  A    between atoms: _372  and  _374
REMARK  154  A    between atoms: _374  and  _375
REMARK  155  A    between atoms: _374  and  _377
REMARK  156  A    between atoms: _380  and  _382
REMARK  157  A    between atoms: _382  and  _383
REMARK  158  A    between atoms: _382  and  _385
REMARK  159  A    between atoms: _385  and  _386
REMARK  160  A    between atoms: _388  and  _390
REMARK  161  A    between atoms: _390  and  _391
REMARK  162  A    between atoms: _390  and  _393
REMARK  163  A    between atoms: _393  and  _394
REMARK  164  A    between atoms: _394  and  _395
REMARK  165  A    between atoms: _397  and  _399
REMARK  166  A    between atoms: _399  and  _400
REMARK  167  A    between atoms: _399  and  _402
REMARK  168  A    between atoms: _402  and  _403
REMARK  169  A    between atoms: _408  and  _409
REMARK  170  A    between atoms: _411  and  _413
REMARK  171  A    between atoms: _413  and  _414
REMARK  172  A    between atoms: _413  and  _416
REMARK  173  A    between atoms: _416  and  _417
REMARK  174  A    between atoms: _420  and  _422
REMARK  175  A    between atoms: _422  and  _423
REMARK  176  A    between atoms: _422  and  _425
REMARK  177  A    between atoms: _425  and  _426
REMARK  178  A    between atoms: _428  and  _430
REMARK  179  A    between atoms: _430  and  _431
REMARK  180  A    between atoms: _430  and  _433
REMARK  181  A    between atoms: _433  and  _434
REMARK  182  A    between atoms: _437  and  _439
REMARK  183  A    between atoms: _439  and  _440
REMARK  184  A    between atoms: _439  and  _442
REMARK  185  A    between atoms: _442  and  _443
REMARK  186  A    between atoms: _448  and  _449
REMARK  187  A    between atoms: _451  and  _453
REMARK  188  A    between atoms: _453  and  _454
REMARK  189  A    between atoms: _453  and  _456
REMARK  190  A    between atoms: _456  and  _457
REMARK  191  A    between atoms: _459  and  _461
REMARK  192  A    between atoms: _461  and  _462
REMARK  193  A    between atoms: _461  and  _464
REMARK  194  A    between atoms: _464  and  _465
REMARK  195  A    between atoms: _471  and  _473
REMARK  196  A    between atoms: _473  and  _474
REMARK  197  A    between atoms: _473  and  _476
REMARK  198  A    between atoms: _476  and  _477
REMARK  199  A    between atoms: _477  and  _478
REMARK  200  A    between atoms: _478  and  _479
REMARK  201  A    between atoms: _488  and  _490
REMARK  202  A    between atoms: _490  and  _491
REMARK  203  A    between atoms: _490  and  _493
REMARK  204  A    between atoms: _496  and  _498
REMARK  205  A    between atoms: _498  and  _499
REMARK  206  A    between atoms: _501  and  _503
REMARK  207  A    between atoms: _503  and  _504
REMARK  208  A    between atoms: _503  and  _506
REMARK  209  A    between atoms: _506  and  _507
REMARK  210  A    between atoms: _510  and  _512
REMARK  211  A    between atoms: _512  and  _513
REMARK  212  A    between atoms: _512  and  _515
REMARK  213  A    between atoms: _515  and  _516
REMARK  214  A    between atoms: _516  and  _517
REMARK  215  A    between atoms: _519  and  _521
REMARK  216  A    between atoms: _521  and  _522
REMARK  217  A    between atoms: _521  and  _524
REMARK  218  A    between atoms: _524  and  _525
REMARK  219  A    between atoms: _531  and  _533
REMARK  220  A    between atoms: _533  and  _534
REMARK  221  A    between atoms: _533  and  _536
REMARK  222  A    between atoms: _536  and  _537
REMARK  223  A    between atoms: _542  and  _544
REMARK  224  A    between atoms: _544  and  _545
REMARK  225  A    between atoms: _544  and  _547
REMARK  226  A    between atoms: _547  and  _548
REMARK  227  A    between atoms: _558  and  _560
REMARK  228  A    between atoms: _560  and  _561
REMARK  229  A    between atoms: _560  and  _563
REMARK  230  A    between atoms: _566  and  _568
REMARK  231  A    between atoms: _568  and  _569
REMARK  232  A    between atoms: _568  and  _571
REMARK  233  A    between atoms: _571  and  _572
REMARK  234  A    between atoms: _575  and  _577
REMARK  235  A    between atoms: _577  and  _578
REMARK  236  A    between atoms: _577  and  _580
REMARK  237  A    between atoms: _580  and  _581
REMARK  238  A    between atoms: _581  and  _582
REMARK  239  A    between atoms: _584  and  _586
REMARK  240  A    between atoms: _586  and  _587
REMARK  241  A    between atoms: _586  and  _589
REMARK  242  A    between atoms: _589  and  _590
REMARK  243  A    between atoms: _593  and  _595
REMARK  244  A    between atoms: _595  and  _596
REMARK  245  A    between atoms: _595  and  _598
REMARK  246  A    between atoms: _598  and  _599
REMARK  247  A    between atoms: _602  and  _604
REMARK  248  A    between atoms: _604  and  _605
REMARK  249  A    between atoms: _607  and  _609
REMARK  250  A    between atoms: _609  and  _610
REMARK  251  A    between atoms: _609  and  _612
REMARK  252  A    between atoms: _612  and  _613
REMARK  253  A    between atoms: _615  and  _617
REMARK  254  A    between atoms: _617  and  _618
REMARK  255  A    between atoms: _617  and  _620
REMARK  256  A    between atoms: _620  and  _621
REMARK  257  A    between atoms: _631  and  _633
REMARK  258  A    between atoms: _633  and  _634
REMARK  259  A    between atoms: _633  and  _636
REMARK  260  A    between atoms: _636  and  _637
REMARK  261  A    between atoms: _639  and  _641
REMARK  262  A    between atoms: _641  and  _642
REMARK  263  A    between atoms: _641  and  _644
REMARK  264  A    between atoms: _644  and  _645
REMARK  265  A    between atoms: _648  and  _650
REMARK  266  A    between atoms: _650  and  _651
REMARK  267  A    between atoms: _654  and  _656
REMARK  268  A    between atoms: _656  and  _657
REMARK  269  A    between atoms: _656  and  _659
REMARK  270  A    between atoms: _659  and  _660
REMARK  271  A    between atoms: _662  and  _664
REMARK  272  A    between atoms: _664  and  _665
REMARK  273  A    between atoms: _664  and  _667
REMARK  274  A    between atoms: _667  and  _668
REMARK  275  A    between atoms: _668  and  _669
REMARK  276  A    between atoms: _673  and  _674
REMARK  277  A    between atoms: _679  and  _681
REMARK  278  A    between atoms: _681  and  _682
REMARK  279  A    between atoms: _681  and  _684
REMARK  280  A    between atoms: _684  and  _685
REMARK  281  A    between atoms: _687  and  _689
REMARK  282  A    between atoms: _689  and  _690
REMARK  283  A    between atoms: _689  and  _692
REMARK  284  A    between atoms: _692  and  _693
REMARK  285  A    between atoms: _693  and  _694
REMARK  286  A    between atoms: _699  and  _701
REMARK  287  A    between atoms: _701  and  _702
REMARK  288  A    between atoms: _701  and  _704
REMARK  289  A    between atoms: _704  and  _705
REMARK  290  A    between atoms: _705  and  _706
REMARK  291  A    between atoms: _711  and  _713
REMARK  292  A    between atoms: _713  and  _714
REMARK  293  A    between atoms: _713  and  _716
REMARK  294  A    between atoms: _716  and  _717
REMARK  295  A    between atoms: _720  and  _722
REMARK  296  A    between atoms: _722  and  _723
REMARK  297  A    between atoms: _722  and  _725
REMARK  298  A    between atoms: _725  and  _726
REMARK  299  A    between atoms: _729  and  _731
REMARK  300  A    between atoms: _731  and  _732
REMARK  301  A    between atoms: _731  and  _734
REMARK  302  A    between atoms: _734  and  _735
REMARK  303  A    between atoms: _741  and  _743
REMARK  304  A    between atoms: _743  and  _744
REMARK  305  A    between atoms: _743  and  _746
REMARK  306  A    between atoms: _746  and  _747
REMARK  307  A    between atoms: _752  and  _753
REMARK  308  A    between atoms: _755  and  _757
REMARK  309  A    between atoms: _757  and  _758
REMARK  310  A    between atoms: _757  and  _760
REMARK  311  A    between atoms: _760  and  _761
REMARK  312  A    between atoms: _767  and  _769
REMARK  313  A    between atoms: _769  and  _770
REMARK  314  A    between atoms: _769  and  _772
REMARK  315  A    between atoms: _772  and  _773
REMARK  316  A    between atoms: _778  and  _780
REMARK  317  A    between atoms: _780  and  _781
REMARK  318  A    between atoms: _780  and  _783
REMARK  319  A    between atoms: _783  and  _784
REMARK  320  A    between atoms: _784  and  _785
REMARK                            x       y       z     vdW  Elec       q    Type
REMARK                         _______ _______ _______ _____ _____    ______ ____
ROOT
ATOM      1  O   HOH     1      -2.876  50.376  35.920  0.00  0.00    +0.000 OA
ENDROOT
TORSDOF 0
REMARK  Name = ../refined-set-2016/3drf/3drf_pocket.pdb
REMARK  320 active torsions:
REMARK  status: ('A' for Active; 'I' for Inactive)
REMARK    1  A    between atoms: _1  and  _3
REMARK    2  A    between atoms: _3  and  _4
REMARK    3  A    between atoms: _3  and  _6
REMARK    4  A    between atoms: _6  and  _7
REMARK    5  A    between atoms: _12  and  _13
REMARK    6  A    between atoms: _15  and  _17
REMARK    7  A    between atoms: _17  and  _18
REMARK    8  A    between atoms: _17  and  _20
REMARK    9  A    between atoms: _20  and  _21
REMARK   10  A    between atoms: _21  and  _22
REMARK   11  A    between atoms: _27  and  _29
REMARK   12  A    between atoms: _29  and  _30
REMARK   13  A    between atoms: _29  and  _32
REMARK   14  A    between atoms: _32  and  _33
REMARK   15  A    between atoms: _35  and  _37
REMARK   16  A    between atoms: _37  and  _38
REMARK   17  A    between atoms: _37  and  _40
REMARK   18  A    between atoms: _40  and  _41
REMARK   19  A    between atoms: _44  and  _46
REMARK   20  A    between atoms: _46  and  _47
REMARK   21  A    between atoms: _46  and  _49
REMARK   22  A    between atoms: _49  and  _50
REMARK   23  A    between atoms: _52  and  _54
REMARK   24  A    between atoms: _54  and  _55
REMARK   25  A    between atoms: _54  and  _57
REMARK   26  A    between atoms: _57  and  _58
REMARK   27  A    between atoms: _60  and  _62
REMARK   28  A    between atoms: _62  and  _63
REMARK   29  A    between atoms: _65  and  _67
REMARK   30  A    between atoms: _67  and  _68
REMARK   31  A    between atoms: _67  and  _70
REMARK   32  A    between atoms: _70  and  _71
REMARK   33  A    between atoms: _73  and  _75
REMARK   34  A    between atoms: _75  and  _76
REMARK   35  A    between atoms: _75  and  _78
REMARK   36  A    between atoms: _78  and  _79
REMARK   37  A    between atoms: _84  and  _86
REMARK   38  A    between atoms: _86  and  _87
REMARK   39  A    between atoms: _86  and  _89
REMARK   40  A    between atoms: _89  and  _90
REMARK   41  A    between atoms: _93  and  _95
REMARK   42  A    between atoms: _95  and  _96
REMARK   43  A    between atoms: _99  and  _101
REMARK   44  A    between atoms: _101  and  _102
REMARK   45  A    between atoms: _101  and  _104
REMARK   46  A    between atoms: _104  and  _105
REMARK   47  A    between atoms: _108  and  _110
REMARK   48  A    between atoms: _110  and  _111
REMARK   49  A    between atoms: _110  and  _113
REMARK   50  A    between atoms: _113  and  _114
REMARK   51  A    between atoms: _120  and  _122
REMARK   52  A    between atoms: _122  and  _123
REMARK   53  A    between atoms: _126  and  _128
REMARK   54  A    between atoms: _128  and  _129
REMARK   55  A    between atoms: _128  and  _131
REMARK   56  A    between atoms: _131  and  _132
REMARK   57  A    between atoms: _135  and  _137
REMARK   58  A    between atoms: _137  and  _138
REMARK   59  A    between atoms: _140  and  _142
REMARK   60  A    between atoms: _142  and  _143
REMARK   61  A    between atoms: _142  and  _145
REMARK   62  A    between atoms: _145  and  _146
REMARK   63  A    between atoms: _146  and  _147
REMARK   64  A    between atoms: _152  and  _154
REMARK   65  A    between atoms: _154  and  _155
REMARK   66  A    between atoms: _157  and  _159
REMARK   67  A    between atoms: _159  and  _160
REMARK   68  A    between atoms: _159  and  _162
REMARK   69  A    between atoms: _162  and  _163
REMARK   70  A    between atoms: _166  and  _168
REMARK   71  A    between atoms: _168  and  _169
REMARK   72  A    between atoms: _168  and  _171
REMARK   73  A    between atoms: _171  and  _172
REMARK   74  A    between atoms: _178  and  _180
REMARK   75  A    between atoms: _180  and  _181
REMARK   76  A    between atoms: _180  and  _183
REMARK   77  A    between atoms: _183  and  _184
REMARK   78  A    between atoms: _187  and  _189
REMARK   79  A    between atoms: _189  and  _190
REMARK   80  A    between atoms: _189  and  _192
REMARK   81  A    between atoms: _192  and  _193
REMARK   82  A    between atoms: _199  and  _201
REMARK   83  A    between atoms: _201  and  _202
REMARK   84  A    between atoms: _201  and  _204
REMARK   85  A    between atoms: _204  and  _205
REMARK   86  A    between atoms: _211  and  _213
REMARK   87  A    between atoms: _213  and  _214
REMARK   88  A    between atoms: _213  and  _216
REMARK   89  A    between atoms: _216  and  _217
REMARK   90  A    between atoms: _220  and  _222
REMARK   91  A    between atoms: _222  and  _223
REMARK   92  A    between atoms: _222  and  _225
REMARK   93  A    between atoms: _225  and  _226
REMARK   94  A    between atoms: _229  and  _231
REMARK   95  A    between atoms: _231  and  _232
REMARK   96  A    between atoms: _231  and  _234
REMARK   97  A    between atoms: _234  and  _235
REMARK   98  A    between atoms: _235  and  _236
REMARK   99  A    between atoms: _236  and  _237
REMARK  100  A    between atoms: _246  and  _248
REMARK  101  A    between atoms: _248  and  _249
REMARK  102  A    between atoms: _248  and  _251
REMARK  103  A    between atoms: _251  and  _252
REMARK  104  A    between atoms: _255  and  _257
REMARK  105  A    between atoms: _257  and  _258
REMARK  106  A    between atoms: _257  and  _260
REMARK  107  A    between atoms: _260  and  _261
REMARK  108  A    between atoms: _263  and  _265
REMARK  109  A    between atoms: _265  and  _266
REMARK  110  A    between atoms: _265  and  _268
REMARK  111  A    between atoms: _268  and  _269
REMARK  112  A    between atoms: _269  and  _270
REMARK  113  A    between atoms: _275  and  _277
REMARK  114  A    between atoms: _277  and  _278
REMARK  115  A    between atoms: _277  and  _280
REMARK  116  A    between atoms: _280  and  _281
REMARK  117  A    between atoms: _283  and  _285
REMARK  118  A    between atoms: _285  and  _286
REMARK  119  A    between atoms: _288  and  _290
REMARK  120  A    between atoms: _290  and  _291
REMARK  121  A    between atoms: _290  and  _293
REMARK  122  A    between atoms: _293  and  _294
REMARK  123  A    between atoms: _299  and  _301
REMARK  124  A    between atoms: _301  and  _302
REMARK  125  A    between atoms: _304  and  _306
REMARK  126  A    between atoms: _306  and  _307
REMARK  127  A    between atoms: _306  and  _309
REMARK  128  A    between atoms: _309  and  _310
REMARK  129  A    between atoms: _315  and  _316
REMARK  130  A    between atoms: _318  and  _320
REMARK  131  A    between atoms: _320  and  _321
REMARK  132  A    between atoms: _320  and  _323
REMARK  133  A    between atoms: _323  and  _324
REMARK  134  A    between atoms: _330  and  _332
REMARK  135  A    between atoms: _332  and  _333
REMARK  136  A    between atoms: _332  and  _335
REMARK  137  A    between atoms: _335  and  _336
REMARK  138  A    between atoms: _339  and  _341
REMARK  139  A    between atoms: _341  and  _342
REMARK  140  A    between atoms: _341  and  _344
REMARK  141  A    between atoms: _344  and  _345
REMARK  142  A    between atoms: _345  and  _346
REMARK  143  A    between atoms: _349  and  _351
REMARK  144  A    between atoms: _351  and  _352
REMARK  145  A    between atoms: _351  and  _354
REMARK  146  A    between atoms: _354  and  _355
REMARK  147  A    between atoms: _358  and  _360
REMARK  148  A    between atoms: _360  and  _361
REMARK  149  A    between atoms: _360  and  _363
REMARK  150  A    between atoms: _363  and  _364
REMARK  151  A    between atoms: _367  and  _369
REMARK  152  A    between atoms: _369  and  _370
REMARK  153  A    between atoms: _372  and  _374
REMARK  154  A    between atoms: _374  and  _375
REMARK  155  A    between atoms: _374  and  _377
REMARK  156  A    between atoms: _380  and  _382
REMARK  157  A    between atoms: _382  and  _383
REMARK  158  A    between atoms: _382  and  _385
REMARK  159  A    between atoms: _385  and  _386
REMARK  160  A    between atoms: _388  and  _390
REMARK  161  A    between atoms: _390  and  _391
REMARK  162  A    between atoms: _390  and  _393
REMARK  163  A    between atoms: _393  and  _394
REMARK  164  A    between atoms: _394  and  _395
REMARK  165  A    between atoms: _397  and  _399
REMARK  166  A    between atoms: _399  and  _400
REMARK  167  A    between atoms: _399  and  _402
REMARK  168  A    between atoms: _402  and  _403
REMARK  169  A    between atoms: _408  and  _409
REMARK  170  A    between atoms: _411  and  _413
REMARK  171  A    between atoms: _413  and  _414
REMARK  172  A    between atoms: _413  and  _416
REMARK  173  A    between atoms: _416  and  _417
REMARK  174  A    between atoms: _420  and  _422
REMARK  175  A    between atoms: _422  and  _423
REMARK  176  A    between atoms: _422  and  _425
REMARK  177  A    between atoms: _425  and  _426
REMARK  178  A    between atoms: _428  and  _430
REMARK  179  A    between atoms: _430  and  _431
REMARK  180  A    between atoms: _430  and  _433
REMARK  181  A    between atoms: _433  and  _434
REMARK  182  A    between atoms: _437  and  _439
REMARK  183  A    between atoms: _439  and  _440
REMARK  184  A    between atoms: _439  and  _442
REMARK  185  A    between atoms: _442  and  _443
REMARK  186  A    between atoms: _448  and  _449
REMARK  187  A    between atoms: _451  and  _453
REMARK  188  A    between atoms: _453  and  _454
REMARK  189  A    between atoms: _453  and  _456
REMARK  190  A    between atoms: _456  and  _457
REMARK  191  A    between atoms: _459  and  _461
REMARK  192  A    between atoms: _461  and  _462
REMARK  193  A    between atoms: _461  and  _464
REMARK  194  A    between atoms: _464  and  _465
REMARK  195  A    between atoms: _471  and  _473
REMARK  196  A    between atoms: _473  and  _474
REMARK  197  A    between atoms: _473  and  _476
REMARK  198  A    between atoms: _476  and  _477
REMARK  199  A    between atoms: _477  and  _478
REMARK  200  A    between atoms: _478  and  _479
REMARK  201  A    between atoms: _488  and  _490
REMARK  202  A    between atoms: _490  and  _491
REMARK  203  A    between atoms: _490  and  _493
REMARK  204  A    between atoms: _496  and  _498
REMARK  205  A    between atoms: _498  and  _499
REMARK  206  A    between atoms: _501  and  _503
REMARK  207  A    between atoms: _503  and  _504
REMARK  208  A    between atoms: _503  and  _506
REMARK  209  A    between atoms: _506  and  _507
REMARK  210  A    between atoms: _510  and  _512
REMARK  211  A    between atoms: _512  and  _513
REMARK  212  A    between atoms: _512  and  _515
REMARK  213  A    between atoms: _515  and  _516
REMARK  214  A    between atoms: _516  and  _517
REMARK  215  A    between atoms: _519  and  _521
REMARK  216  A    between atoms: _521  and  _522
REMARK  217  A    between atoms: _521  and  _524
REMARK  218  A    between atoms: _524  and  _525
REMARK  219  A    between atoms: _531  and  _533
REMARK  220  A    between atoms: _533  and  _534
REMARK  221  A    between atoms: _533  and  _536
REMARK  222  A    between atoms: _536  and  _537
REMARK  223  A    between atoms: _542  and  _544
REMARK  224  A    between atoms: _544  and  _545
REMARK  225  A    between atoms: _544  and  _547
REMARK  226  A    between atoms: _547  and  _548
REMARK  227  A    between atoms: _558  and  _560
REMARK  228  A    between atoms: _560  and  _561
REMARK  229  A    between atoms: _560  and  _563
REMARK  230  A    between atoms: _566  and  _568
REMARK  231  A    between atoms: _568  and  _569
REMARK  232  A    between atoms: _568  and  _571
REMARK  233  A    between atoms: _571  and  _572
REMARK  234  A    between atoms: _575  and  _577
REMARK  235  A    between atoms: _577  and  _578
REMARK  236  A    between atoms: _577  and  _580
REMARK  237  A    between atoms: _580  and  _581
REMARK  238  A    between atoms: _581  and  _582
REMARK  239  A    between atoms: _584  and  _586
REMARK  240  A    between atoms: _586  and  _587
REMARK  241  A    between atoms: _586  and  _589
REMARK  242  A    between atoms: _589  and  _590
REMARK  243  A    between atoms: _593  and  _595
REMARK  244  A    between atoms: _595  and  _596
REMARK  245  A    between atoms: _595  and  _598
REMARK  246  A    between atoms: _598  and  _599
REMARK  247  A    between atoms: _602  and  _604
REMARK  248  A    between atoms: _604  and  _605
REMARK  249  A    between atoms: _607  and  _609
REMARK  250  A    between atoms: _609  and  _610
REMARK  251  A    between atoms: _609  and  _612
REMARK  252  A    between atoms: _612  and  _613
REMARK  253  A    between atoms: _615  and  _617
REMARK  254  A    between atoms: _617  and  _618
REMARK  255  A    between atoms: _617  and  _620
REMARK  256  A    between atoms: _620  and  _621
REMARK  257  A    between atoms: _631  and  _633
REMARK  258  A    between atoms: _633  and  _634
REMARK  259  A    between atoms: _633  and  _636
REMARK  260  A    between atoms: _636  and  _637
REMARK  261  A    between atoms: _639  and  _641
REMARK  262  A    between atoms: _641  and  _642
REMARK  263  A    between atoms: _641  and  _644
REMARK  264  A    between atoms: _644  and  _645
REMARK  265  A    between atoms: _648  and  _650
REMARK  266  A    between atoms: _650  and  _651
REMARK  267  A    between atoms: _654  and  _656
REMARK  268  A    between atoms: _656  and  _657
REMARK  269  A    between atoms: _656  and  _659
REMARK  270  A    between atoms: _659  and  _660
REMARK  271  A    between atoms: _662  and  _664
REMARK  272  A    between atoms: _664  and  _665
REMARK  273  A    between atoms: _664  and  _667
REMARK  274  A    between atoms: _667  and  _668
REMARK  275  A    between atoms: _668  and  _669
REMARK  276  A    between atoms: _673  and  _674
REMARK  277  A    between atoms: _679  and  _681
REMARK  278  A    between atoms: _681  and  _682
REMARK  279  A    between atoms: _681  and  _684
REMARK  280  A    between atoms: _684  and  _685
REMARK  281  A    between atoms: _687  and  _689
REMARK  282  A    between atoms: _689  and  _690
REMARK  283  A    between atoms: _689  and  _692
REMARK  284  A    between atoms: _692  and  _693
REMARK  285  A    between atoms: _693  and  _694
REMARK  286  A    between atoms: _699  and  _701
REMARK  287  A    between atoms: _701  and  _702
REMARK  288  A    between atoms: _701  and  _704
REMARK  289  A    between atoms: _704  and  _705
REMARK  290  A    between atoms: _705  and  _706
REMARK  291  A    between atoms: _711  and  _713
REMARK  292  A    between atoms: _713  and  _714
REMARK  293  A    between atoms: _713  and  _716
REMARK  294  A    between atoms: _716  and  _717
REMARK  295  A    between atoms: _720  and  _722
REMARK  296  A    between atoms: _722  and  _723
REMARK  297  A    between atoms: _722  and  _725
REMARK  298  A    between atoms: _725  and  _726
REMARK  299  A    between atoms: _729  and  _731
REMARK  300  A    between atoms: _731  and  _732
REMARK  301  A    between atoms: _731  and  _734
REMARK  302  A    between atoms: _734  and  _735
REMARK  303  A    between atoms: _741  and  _743
REMARK  304  A    between atoms: _743  and  _744
REMARK  305  A    between atoms: _743  and  _746
REMARK  306  A    between atoms: _746  and  _747
REMARK  307  A    between atoms: _752  and  _753
REMARK  308  A    between atoms: _755  and  _757
REMARK  309  A    between atoms: _757  and  _758
REMARK  310  A    between atoms: _757  and  _760
REMARK  311  A    between atoms: _760  and  _761
REMARK  312  A    between atoms: _767  and  _769
REMARK  313  A    between atoms: _769  and  _770
REMARK  314  A    between atoms: _769  and  _772
REMARK  315  A    between atoms: _772  and  _773
REMARK  316  A    between atoms: _778  and  _780
REMARK  317  A    between atoms: _780  and  _781
REMARK  318  A    between atoms: _780  and  _783
REMARK  319  A    between atoms: _783  and  _784
REMARK  320  A    between atoms: _784  and  _785
REMARK                            x       y       z     vdW  Elec       q    Type
REMARK                         _______ _______ _______ _____ _____    ______ ____
ROOT
ATOM      1  O   HOH     1       6.142  43.922  24.121  0.00  0.00    +0.000 OA
ENDROOT
TORSDOF 0
REMARK  Name = ../refined-set-2016/3drf/3drf_pocket.pdb
REMARK  320 active torsions:
REMARK  status: ('A' for Active; 'I' for Inactive)
REMARK    1  A    between atoms: _1  and  _3
REMARK    2  A    between atoms: _3  and  _4
REMARK    3  A    between atoms: _3  and  _6
REMARK    4  A    between atoms: _6  and  _7
REMARK    5  A    between atoms: _12  and  _13
REMARK    6  A    between atoms: _15  and  _17
REMARK    7  A    between atoms: _17  and  _18
REMARK    8  A    between atoms: _17  and  _20
REMARK    9  A    between atoms: _20  and  _21
REMARK   10  A    between atoms: _21  and  _22
REMARK   11  A    between atoms: _27  and  _29
REMARK   12  A    between atoms: _29  and  _30
REMARK   13  A    between atoms: _29  and  _32
REMARK   14  A    between atoms: _32  and  _33
REMARK   15  A    between atoms: _35  and  _37
REMARK   16  A    between atoms: _37  and  _38
REMARK   17  A    between atoms: _37  and  _40
REMARK   18  A    between atoms: _40  and  _41
REMARK   19  A    between atoms: _44  and  _46
REMARK   20  A    between atoms: _46  and  _47
REMARK   21  A    between atoms: _46  and  _49
REMARK   22  A    between atoms: _49  and  _50
REMARK   23  A    between atoms: _52  and  _54
REMARK   24  A    between atoms: _54  and  _55
REMARK   25  A    between atoms: _54  and  _57
REMARK   26  A    between atoms: _57  and  _58
REMARK   27  A    between atoms: _60  and  _62
REMARK   28  A    between atoms: _62  and  _63
REMARK   29  A    between atoms: _65  and  _67
REMARK   30  A    between atoms: _67  and  _68
REMARK   31  A    between atoms: _67  and  _70
REMARK   32  A    between atoms: _70  and  _71
REMARK   33  A    between atoms: _73  and  _75
REMARK   34  A    between atoms: _75  and  _76
REMARK   35  A    between atoms: _75  and  _78
REMARK   36  A    between atoms: _78  and  _79
REMARK   37  A    between atoms: _84  and  _86
REMARK   38  A    between atoms: _86  and  _87
REMARK   39  A    between atoms: _86  and  _89
REMARK   40  A    between atoms: _89  and  _90
REMARK   41  A    between atoms: _93  and  _95
REMARK   42  A    between atoms: _95  and  _96
REMARK   43  A    between atoms: _99  and  _101
REMARK   44  A    between atoms: _101  and  _102
REMARK   45  A    between atoms: _101  and  _104
REMARK   46  A    between atoms: _104  and  _105
REMARK   47  A    between atoms: _108  and  _110
REMARK   48  A    between atoms: _110  and  _111
REMARK   49  A    between atoms: _110  and  _113
REMARK   50  A    between atoms: _113  and  _114
REMARK   51  A    between atoms: _120  and  _122
REMARK   52  A    between atoms: _122  and  _123
REMARK   53  A    between atoms: _126  and  _128
REMARK   54  A    between atoms: _128  and  _129
REMARK   55  A    between atoms: _128  and  _131
REMARK   56  A    between atoms: _131  and  _132
REMARK   57  A    between atoms: _135  and  _137
REMARK   58  A    between atoms: _137  and  _138
REMARK   59  A    between atoms: _140  and  _142
REMARK   60  A    between atoms: _142  and  _143
REMARK   61  A    between atoms: _142  and  _145
REMARK   62  A    between atoms: _145  and  _146
REMARK   63  A    between atoms: _146  and  _147
REMARK   64  A    between atoms: _152  and  _154
REMARK   65  A    between atoms: _154  and  _155
REMARK   66  A    between atoms: _157  and  _159
REMARK   67  A    between atoms: _159  and  _160
REMARK   68  A    between atoms: _159  and  _162
REMARK   69  A    between atoms: _162  and  _163
REMARK   70  A    between atoms: _166  and  _168
REMARK   71  A    between atoms: _168  and  _169
REMARK   72  A    between atoms: _168  and  _171
REMARK   73  A    between atoms: _171  and  _172
REMARK   74  A    between atoms: _178  and  _180
REMARK   75  A    between atoms: _180  and  _181
REMARK   76  A    between atoms: _180  and  _183
REMARK   77  A    between atoms: _183  and  _184
REMARK   78  A    between atoms: _187  and  _189
REMARK   79  A    between atoms: _189  and  _190
REMARK   80  A    between atoms: _189  and  _192
REMARK   81  A    between atoms: _192  and  _193
REMARK   82  A    between atoms: _199  and  _201
REMARK   83  A    between atoms: _201  and  _202
REMARK   84  A    between atoms: _201  and  _204
REMARK   85  A    between atoms: _204  and  _205
REMARK   86  A    between atoms: _211  and  _213
REMARK   87  A    between atoms: _213  and  _214
REMARK   88  A    between atoms: _213  and  _216
REMARK   89  A    between atoms: _216  and  _217
REMARK   90  A    between atoms: _220  and  _222
REMARK   91  A    between atoms: _222  and  _223
REMARK   92  A    between atoms: _222  and  _225
REMARK   93  A    between atoms: _225  and  _226
REMARK   94  A    between atoms: _229  and  _231
REMARK   95  A    between atoms: _231  and  _232
REMARK   96  A    between atoms: _231  and  _234
REMARK   97  A    between atoms: _234  and  _235
REMARK   98  A    between atoms: _235  and  _236
REMARK   99  A    between atoms: _236  and  _237
REMARK  100  A    between atoms: _246  and  _248
REMARK  101  A    between atoms: _248  and  _249
REMARK  102  A    between atoms: _248  and  _251
REMARK  103  A    between atoms: _251  and  _252
REMARK  104  A    between atoms: _255  and  _257
REMARK  105  A    between atoms: _257  and  _258
REMARK  106  A    between atoms: _257  and  _260
REMARK  107  A    between atoms: _260  and  _261
REMARK  108  A    between atoms: _263  and  _265
REMARK  109  A    between atoms: _265  and  _266
REMARK  110  A    between atoms: _265  and  _268
REMARK  111  A    between atoms: _268  and  _269
REMARK  112  A    between atoms: _269  and  _270
REMARK  113  A    between atoms: _275  and  _277
REMARK  114  A    between atoms: _277  and  _278
REMARK  115  A    between atoms: _277  and  _280
REMARK  116  A    between atoms: _280  and  _281
REMARK  117  A    between atoms: _283  and  _285
REMARK  118  A    between atoms: _285  and  _286
REMARK  119  A    between atoms: _288  and  _290
REMARK  120  A    between atoms: _290  and  _291
REMARK  121  A    between atoms: _290  and  _293
REMARK  122  A    between atoms: _293  and  _294
REMARK  123  A    between atoms: _299  and  _301
REMARK  124  A    between atoms: _301  and  _302
REMARK  125  A    between atoms: _304  and  _306
REMARK  126  A    between atoms: _306  and  _307
REMARK  127  A    between atoms: _306  and  _309
REMARK  128  A    between atoms: _309  and  _310
REMARK  129  A    between atoms: _315  and  _316
REMARK  130  A    between atoms: _318  and  _320
REMARK  131  A    between atoms: _320  and  _321
REMARK  132  A    between atoms: _320  and  _323
REMARK  133  A    between atoms: _323  and  _324
REMARK  134  A    between atoms: _330  and  _332
REMARK  135  A    between atoms: _332  and  _333
REMARK  136  A    between atoms: _332  and  _335
REMARK  137  A    between atoms: _335  and  _336
REMARK  138  A    between atoms: _339  and  _341
REMARK  139  A    between atoms: _341  and  _342
REMARK  140  A    between atoms: _341  and  _344
REMARK  141  A    between atoms: _344  and  _345
REMARK  142  A    between atoms: _345  and  _346
REMARK  143  A    between atoms: _349  and  _351
REMARK  144  A    between atoms: _351  and  _352
REMARK  145  A    between atoms: _351  and  _354
REMARK  146  A    between atoms: _354  and  _355
REMARK  147  A    between atoms: _358  and  _360
REMARK  148  A    between atoms: _360  and  _361
REMARK  149  A    between atoms: _360  and  _363
REMARK  150  A    between atoms: _363  and  _364
REMARK  151  A    between atoms: _367  and  _369
REMARK  152  A    between atoms: _369  and  _370
REMARK  153  A    between atoms: _372  and  _374
REMARK  154  A    between atoms: _374  and  _375
REMARK  155  A    between atoms: _374  and  _377
REMARK  156  A    between atoms: _380  and  _382
REMARK  157  A    between atoms: _382  and  _383
REMARK  158  A    between atoms: _382  and  _385
REMARK  159  A    between atoms: _385  and  _386
REMARK  160  A    between atoms: _388  and  _390
REMARK  161  A    between atoms: _390  and  _391
REMARK  162  A    between atoms: _390  and  _393
REMARK  163  A    between atoms: _393  and  _394
REMARK  164  A    between atoms: _394  and  _395
REMARK  165  A    between atoms: _397  and  _399
REMARK  166  A    between atoms: _399  and  _400
REMARK  167  A    between atoms: _399  and  _402
REMARK  168  A    between atoms: _402  and  _403
REMARK  169  A    between atoms: _408  and  _409
REMARK  170  A    between atoms: _411  and  _413
REMARK  171  A    between atoms: _413  and  _414
REMARK  172  A    between atoms: _413  and  _416
REMARK  173  A    between atoms: _416  and  _417
REMARK  174  A    between atoms: _420  and  _422
REMARK  175  A    between atoms: _422  and  _423
REMARK  176  A    between atoms: _422  and  _425
REMARK  177  A    between atoms: _425  and  _426
REMARK  178  A    between atoms: _428  and  _430
REMARK  179  A    between atoms: _430  and  _431
REMARK  180  A    between atoms: _430  and  _433
REMARK  181  A    between atoms: _433  and  _434
REMARK  182  A    between atoms: _437  and  _439
REMARK  183  A    between atoms: _439  and  _440
REMARK  184  A    between atoms: _439  and  _442
REMARK  185  A    between atoms: _442  and  _443
REMARK  186  A    between atoms: _448  and  _449
REMARK  187  A    between atoms: _451  and  _453
REMARK  188  A    between atoms: _453  and  _454
REMARK  189  A    between atoms: _453  and  _456
REMARK  190  A    between atoms: _456  and  _457
REMARK  191  A    between atoms: _459  and  _461
REMARK  192  A    between atoms: _461  and  _462
REMARK  193  A    between atoms: _461  and  _464
REMARK  194  A    between atoms: _464  and  _465
REMARK  195  A    between atoms: _471  and  _473
REMARK  196  A    between atoms: _473  and  _474
REMARK  197  A    between atoms: _473  and  _476
REMARK  198  A    between atoms: _476  and  _477
REMARK  199  A    between atoms: _477  and  _478
REMARK  200  A    between atoms: _478  and  _479
REMARK  201  A    between atoms: _488  and  _490
REMARK  202  A    between atoms: _490  and  _491
REMARK  203  A    between atoms: _490  and  _493
REMARK  204  A    between atoms: _496  and  _498
REMARK  205  A    between atoms: _498  and  _499
REMARK  206  A    between atoms: _501  and  _503
REMARK  207  A    between atoms: _503  and  _504
REMARK  208  A    between atoms: _503  and  _506
REMARK  209  A    between atoms: _506  and  _507
REMARK  210  A    between atoms: _510  and  _512
REMARK  211  A    between atoms: _512  and  _513
REMARK  212  A    between atoms: _512  and  _515
REMARK  213  A    between atoms: _515  and  _516
REMARK  214  A    between atoms: _516  and  _517
REMARK  215  A    between atoms: _519  and  _521
REMARK  216  A    between atoms: _521  and  _522
REMARK  217  A    between atoms: _521  and  _524
REMARK  218  A    between atoms: _524  and  _525
REMARK  219  A    between atoms: _531  and  _533
REMARK  220  A    between atoms: _533  and  _534
REMARK  221  A    between atoms: _533  and  _536
REMARK  222  A    between atoms: _536  and  _537
REMARK  223  A    between atoms: _542  and  _544
REMARK  224  A    between atoms: _544  and  _545
REMARK  225  A    between atoms: _544  and  _547
REMARK  226  A    between atoms: _547  and  _548
REMARK  227  A    between atoms: _558  and  _560
REMARK  228  A    between atoms: _560  and  _561
REMARK  229  A    between atoms: _560  and  _563
REMARK  230  A    between atoms: _566  and  _568
REMARK  231  A    between atoms: _568  and  _569
REMARK  232  A    between atoms: _568  and  _571
REMARK  233  A    between atoms: _571  and  _572
REMARK  234  A    between atoms: _575  and  _577
REMARK  235  A    between atoms: _577  and  _578
REMARK  236  A    between atoms: _577  and  _580
REMARK  237  A    between atoms: _580  and  _581
REMARK  238  A    between atoms: _581  and  _582
REMARK  239  A    between atoms: _584  and  _586
REMARK  240  A    between atoms: _586  and  _587
REMARK  241  A    between atoms: _586  and  _589
REMARK  242  A    between atoms: _589  and  _590
REMARK  243  A    between atoms: _593  and  _595
REMARK  244  A    between atoms: _595  and  _596
REMARK  245  A    between atoms: _595  and  _598
REMARK  246  A    between atoms: _598  and  _599
REMARK  247  A    between atoms: _602  and  _604
REMARK  248  A    between atoms: _604  and  _605
REMARK  249  A    between atoms: _607  and  _609
REMARK  250  A    between atoms: _609  and  _610
REMARK  251  A    between atoms: _609  and  _612
REMARK  252  A    between atoms: _612  and  _613
REMARK  253  A    between atoms: _615  and  _617
REMARK  254  A    between atoms: _617  and  _618
REMARK  255  A    between atoms: _617  and  _620
REMARK  256  A    between atoms: _620  and  _621
REMARK  257  A    between atoms: _631  and  _633
REMARK  258  A    between atoms: _633  and  _634
REMARK  259  A    between atoms: _633  and  _636
REMARK  260  A    between atoms: _636  and  _637
REMARK  261  A    between atoms: _639  and  _641
REMARK  262  A    between atoms: _641  and  _642
REMARK  263  A    between atoms: _641  and  _644
REMARK  264  A    between atoms: _644  and  _645
REMARK  265  A    between atoms: _648  and  _650
REMARK  266  A    between atoms: _650  and  _651
REMARK  267  A    between atoms: _654  and  _656
REMARK  268  A    between atoms: _656  and  _657
REMARK  269  A    between atoms: _656  and  _659
REMARK  270  A    between atoms: _659  and  _660
REMARK  271  A    between atoms: _662  and  _664
REMARK  272  A    between atoms: _664  and  _665
REMARK  273  A    between atoms: _664  and  _667
REMARK  274  A    between atoms: _667  and  _668
REMARK  275  A    between atoms: _668  and  _669
REMARK  276  A    between atoms: _673  and  _674
REMARK  277  A    between atoms: _679  and  _681
REMARK  278  A    between atoms: _681  and  _682
REMARK  279  A    between atoms: _681  and  _684
REMARK  280  A    between atoms: _684  and  _685
REMARK  281  A    between atoms: _687  and  _689
REMARK  282  A    between atoms: _689  and  _690
REMARK  283  A    between atoms: _689  and  _692
REMARK  284  A    between atoms: _692  and  _693
REMARK  285  A    between atoms: _693  and  _694
REMARK  286  A    between atoms: _699  and  _701
REMARK  287  A    between atoms: _701  and  _702
REMARK  288  A    between atoms: _701  and  _704
REMARK  289  A    between atoms: _704  and  _705
REMARK  290  A    between atoms: _705  and  _706
REMARK  291  A    between atoms: _711  and  _713
REMARK  292  A    between atoms: _713  and  _714
REMARK  293  A    between atoms: _713  and  _716
REMARK  294  A    between atoms: _716  and  _717
REMARK  295  A    between atoms: _720  and  _722
REMARK  296  A    between atoms: _722  and  _723
REMARK  297  A    between atoms: _722  and  _725
REMARK  298  A    between atoms: _725  and  _726
REMARK  299  A    between atoms: _729  and  _731
REMARK  300  A    between atoms: _731  and  _732
REMARK  301  A    between atoms: _731  and  _734
REMARK  302  A    between atoms: _734  and  _735
REMARK  303  A    between atoms: _741  and  _743
REMARK  304  A    between atoms: _743  and  _744
REMARK  305  A    between atoms: _743  and  _746
REMARK  306  A    between atoms: _746  and  _747
REMARK  307  A    between atoms: _752  and  _753
REMARK  308  A    between atoms: _755  and  _757
REMARK  309  A    between atoms: _757  and  _758
REMARK  310  A    between atoms: _757  and  _760
REMARK  311  A    between atoms: _760  and  _761
REMARK  312  A    between atoms: _767  and  _769
REMARK  313  A    between atoms: _769  and  _770
REMARK  314  A    between atoms: _769  and  _772
REMARK  315  A    between atoms: _772  and  _773
REMARK  316  A    between atoms: _778  and  _780
REMARK  317  A    between atoms: _780  and  _781
REMARK  318  A    between atoms: _780  and  _783
REMARK  319  A    between atoms: _783  and  _784
REMARK  320  A    between atoms: _784  and  _785
REMARK                            x       y       z     vdW  Elec       q    Type
REMARK                         _______ _______ _______ _____ _____    ______ ____
ROOT
ATOM      1  O   HOH     1       5.607  53.824  22.987  0.00  0.00    +0.000 OA
ENDROOT
TORSDOF 0
REMARK  Name = ../refined-set-2016/3drf/3drf_pocket.pdb
REMARK  320 active torsions:
REMARK  status: ('A' for Active; 'I' for Inactive)
REMARK    1  A    between atoms: _1  and  _3
REMARK    2  A    between atoms: _3  and  _4
REMARK    3  A    between atoms: _3  and  _6
REMARK    4  A    between atoms: _6  and  _7
REMARK    5  A    between atoms: _12  and  _13
REMARK    6  A    between atoms: _15  and  _17
REMARK    7  A    between atoms: _17  and  _18
REMARK    8  A    between atoms: _17  and  _20
REMARK    9  A    between atoms: _20  and  _21
REMARK   10  A    between atoms: _21  and  _22
REMARK   11  A    between atoms: _27  and  _29
REMARK   12  A    between atoms: _29  and  _30
REMARK   13  A    between atoms: _29  and  _32
REMARK   14  A    between atoms: _32  and  _33
REMARK   15  A    between atoms: _35  and  _37
REMARK   16  A    between atoms: _37  and  _38
REMARK   17  A    between atoms: _37  and  _40
REMARK   18  A    between atoms: _40  and  _41
REMARK   19  A    between atoms: _44  and  _46
REMARK   20  A    between atoms: _46  and  _47
REMARK   21  A    between atoms: _46  and  _49
REMARK   22  A    between atoms: _49  and  _50
REMARK   23  A    between atoms: _52  and  _54
REMARK   24  A    between atoms: _54  and  _55
REMARK   25  A    between atoms: _54  and  _57
REMARK   26  A    between atoms: _57  and  _58
REMARK   27  A    between atoms: _60  and  _62
REMARK   28  A    between atoms: _62  and  _63
REMARK   29  A    between atoms: _65  and  _67
REMARK   30  A    between atoms: _67  and  _68
REMARK   31  A    between atoms: _67  and  _70
REMARK   32  A    between atoms: _70  and  _71
REMARK   33  A    between atoms: _73  and  _75
REMARK   34  A    between atoms: _75  and  _76
REMARK   35  A    between atoms: _75  and  _78
REMARK   36  A    between atoms: _78  and  _79
REMARK   37  A    between atoms: _84  and  _86
REMARK   38  A    between atoms: _86  and  _87
REMARK   39  A    between atoms: _86  and  _89
REMARK   40  A    between atoms: _89  and  _90
REMARK   41  A    between atoms: _93  and  _95
REMARK   42  A    between atoms: _95  and  _96
REMARK   43  A    between atoms: _99  and  _101
REMARK   44  A    between atoms: _101  and  _102
REMARK   45  A    between atoms: _101  and  _104
REMARK   46  A    between atoms: _104  and  _105
REMARK   47  A    between atoms: _108  and  _110
REMARK   48  A    between atoms: _110  and  _111
REMARK   49  A    between atoms: _110  and  _113
REMARK   50  A    between atoms: _113  and  _114
REMARK   51  A    between atoms: _120  and  _122
REMARK   52  A    between atoms: _122  and  _123
REMARK   53  A    between atoms: _126  and  _128
REMARK   54  A    between atoms: _128  and  _129
REMARK   55  A    between atoms: _128  and  _131
REMARK   56  A    between atoms: _131  and  _132
REMARK   57  A    between atoms: _135  and  _137
REMARK   58  A    between atoms: _137  and  _138
REMARK   59  A    between atoms: _140  and  _142
REMARK   60  A    between atoms: _142  and  _143
REMARK   61  A    between atoms: _142  and  _145
REMARK   62  A    between atoms: _145  and  _146
REMARK   63  A    between atoms: _146  and  _147
REMARK   64  A    between atoms: _152  and  _154
REMARK   65  A    between atoms: _154  and  _155
REMARK   66  A    between atoms: _157  and  _159
REMARK   67  A    between atoms: _159  and  _160
REMARK   68  A    between atoms: _159  and  _162
REMARK   69  A    between atoms: _162  and  _163
REMARK   70  A    between atoms: _166  and  _168
REMARK   71  A    between atoms: _168  and  _169
REMARK   72  A    between atoms: _168  and  _171
REMARK   73  A    between atoms: _171  and  _172
REMARK   74  A    between atoms: _178  and  _180
REMARK   75  A    between atoms: _180  and  _181
REMARK   76  A    between atoms: _180  and  _183
REMARK   77  A    between atoms: _183  and  _184
REMARK   78  A    between atoms: _187  and  _189
REMARK   79  A    between atoms: _189  and  _190
REMARK   80  A    between atoms: _189  and  _192
REMARK   81  A    between atoms: _192  and  _193
REMARK   82  A    between atoms: _199  and  _201
REMARK   83  A    between atoms: _201  and  _202
REMARK   84  A    between atoms: _201  and  _204
REMARK   85  A    between atoms: _204  and  _205
REMARK   86  A    between atoms: _211  and  _213
REMARK   87  A    between atoms: _213  and  _214
REMARK   88  A    between atoms: _213  and  _216
REMARK   89  A    between atoms: _216  and  _217
REMARK   90  A    between atoms: _220  and  _222
REMARK   91  A    between atoms: _222  and  _223
REMARK   92  A    between atoms: _222  and  _225
REMARK   93  A    between atoms: _225  and  _226
REMARK   94  A    between atoms: _229  and  _231
REMARK   95  A    between atoms: _231  and  _232
REMARK   96  A    between atoms: _231  and  _234
REMARK   97  A    between atoms: _234  and  _235
REMARK   98  A    between atoms: _235  and  _236
REMARK   99  A    between atoms: _236  and  _237
REMARK  100  A    between atoms: _246  and  _248
REMARK  101  A    between atoms: _248  and  _249
REMARK  102  A    between atoms: _248  and  _251
REMARK  103  A    between atoms: _251  and  _252
REMARK  104  A    between atoms: _255  and  _257
REMARK  105  A    between atoms: _257  and  _258
REMARK  106  A    between atoms: _257  and  _260
REMARK  107  A    between atoms: _260  and  _261
REMARK  108  A    between atoms: _263  and  _265
REMARK  109  A    between atoms: _265  and  _266
REMARK  110  A    between atoms: _265  and  _268
REMARK  111  A    between atoms: _268  and  _269
REMARK  112  A    between atoms: _269  and  _270
REMARK  113  A    between atoms: _275  and  _277
REMARK  114  A    between atoms: _277  and  _278
REMARK  115  A    between atoms: _277  and  _280
REMARK  116  A    between atoms: _280  and  _281
REMARK  117  A    between atoms: _283  and  _285
REMARK  118  A    between atoms: _285  and  _286
REMARK  119  A    between atoms: _288  and  _290
REMARK  120  A    between atoms: _290  and  _291
REMARK  121  A    between atoms: _290  and  _293
REMARK  122  A    between atoms: _293  and  _294
REMARK  123  A    between atoms: _299  and  _301
REMARK  124  A    between atoms: _301  and  _302
REMARK  125  A    between atoms: _304  and  _306
REMARK  126  A    between atoms: _306  and  _307
REMARK  127  A    between atoms: _306  and  _309
REMARK  128  A    between atoms: _309  and  _310
REMARK  129  A    between atoms: _315  and  _316
REMARK  130  A    between atoms: _318  and  _320
REMARK  131  A    between atoms: _320  and  _321
REMARK  132  A    between atoms: _320  and  _323
REMARK  133  A    between atoms: _323  and  _324
REMARK  134  A    between atoms: _330  and  _332
REMARK  135  A    between atoms: _332  and  _333
REMARK  136  A    between atoms: _332  and  _335
REMARK  137  A    between atoms: _335  and  _336
REMARK  138  A    between atoms: _339  and  _341
REMARK  139  A    between atoms: _341  and  _342
REMARK  140  A    between atoms: _341  and  _344
REMARK  141  A    between atoms: _344  and  _345
REMARK  142  A    between atoms: _345  and  _346
REMARK  143  A    between atoms: _349  and  _351
REMARK  144  A    between atoms: _351  and  _352
REMARK  145  A    between atoms: _351  and  _354
REMARK  146  A    between atoms: _354  and  _355
REMARK  147  A    between atoms: _358  and  _360
REMARK  148  A    between atoms: _360  and  _361
REMARK  149  A    between atoms: _360  and  _363
REMARK  150  A    between atoms: _363  and  _364
REMARK  151  A    between atoms: _367  and  _369
REMARK  152  A    between atoms: _369  and  _370
REMARK  153  A    between atoms: _372  and  _374
REMARK  154  A    between atoms: _374  and  _375
REMARK  155  A    between atoms: _374  and  _377
REMARK  156  A    between atoms: _380  and  _382
REMARK  157  A    between atoms: _382  and  _383
REMARK  158  A    between atoms: _382  and  _385
REMARK  159  A    between atoms: _385  and  _386
REMARK  160  A    between atoms: _388  and  _390
REMARK  161  A    between atoms: _390  and  _391
REMARK  162  A    between atoms: _390  and  _393
REMARK  163  A    between atoms: _393  and  _394
REMARK  164  A    between atoms: _394  and  _395
REMARK  165  A    between atoms: _397  and  _399
REMARK  166  A    between atoms: _399  and  _400
REMARK  167  A    between atoms: _399  and  _402
REMARK  168  A    between atoms: _402  and  _403
REMARK  169  A    between atoms: _408  and  _409
REMARK  170  A    between atoms: _411  and  _413
REMARK  171  A    between atoms: _413  and  _414
REMARK  172  A    between atoms: _413  and  _416
REMARK  173  A    between atoms: _416  and  _417
REMARK  174  A    between atoms: _420  and  _422
REMARK  175  A    between atoms: _422  and  _423
REMARK  176  A    between atoms: _422  and  _425
REMARK  177  A    between atoms: _425  and  _426
REMARK  178  A    between atoms: _428  and  _430
REMARK  179  A    between atoms: _430  and  _431
REMARK  180  A    between atoms: _430  and  _433
REMARK  181  A    between atoms: _433  and  _434
REMARK  182  A    between atoms: _437  and  _439
REMARK  183  A    between atoms: _439  and  _440
REMARK  184  A    between atoms: _439  and  _442
REMARK  185  A    between atoms: _442  and  _443
REMARK  186  A    between atoms: _448  and  _449
REMARK  187  A    between atoms: _451  and  _453
REMARK  188  A    between atoms: _453  and  _454
REMARK  189  A    between atoms: _453  and  _456
REMARK  190  A    between atoms: _456  and  _457
REMARK  191  A    between atoms: _459  and  _461
REMARK  192  A    between atoms: _461  and  _462
REMARK  193  A    between atoms: _461  and  _464
REMARK  194  A    between atoms: _464  and  _465
REMARK  195  A    between atoms: _471  and  _473
REMARK  196  A    between atoms: _473  and  _474
REMARK  197  A    between atoms: _473  and  _476
REMARK  198  A    between atoms: _476  and  _477
REMARK  199  A    between atoms: _477  and  _478
REMARK  200  A    between atoms: _478  and  _479
REMARK  201  A    between atoms: _488  and  _490
REMARK  202  A    between atoms: _490  and  _491
REMARK  203  A    between atoms: _490  and  _493
REMARK  204  A    between atoms: _496  and  _498
REMARK  205  A    between atoms: _498  and  _499
REMARK  206  A    between atoms: _501  and  _503
REMARK  207  A    between atoms: _503  and  _504
REMARK  208  A    between atoms: _503  and  _506
REMARK  209  A    between atoms: _506  and  _507
REMARK  210  A    between atoms: _510  and  _512
REMARK  211  A    between atoms: _512  and  _513
REMARK  212  A    between atoms: _512  and  _515
REMARK  213  A    between atoms: _515  and  _516
REMARK  214  A    between atoms: _516  and  _517
REMARK  215  A    between atoms: _519  and  _521
REMARK  216  A    between atoms: _521  and  _522
REMARK  217  A    between atoms: _521  and  _524
REMARK  218  A    between atoms: _524  and  _525
REMARK  219  A    between atoms: _531  and  _533
REMARK  220  A    between atoms: _533  and  _534
REMARK  221  A    between atoms: _533  and  _536
REMARK  222  A    between atoms: _536  and  _537
REMARK  223  A    between atoms: _542  and  _544
REMARK  224  A    between atoms: _544  and  _545
REMARK  225  A    between atoms: _544  and  _547
REMARK  226  A    between atoms: _547  and  _548
REMARK  227  A    between atoms: _558  and  _560
REMARK  228  A    between atoms: _560  and  _561
REMARK  229  A    between atoms: _560  and  _563
REMARK  230  A    between atoms: _566  and  _568
REMARK  231  A    between atoms: _568  and  _569
REMARK  232  A    between atoms: _568  and  _571
REMARK  233  A    between atoms: _571  and  _572
REMARK  234  A    between atoms: _575  and  _577
REMARK  235  A    between atoms: _577  and  _578
REMARK  236  A    between atoms: _577  and  _580
REMARK  237  A    between atoms: _580  and  _581
REMARK  238  A    between atoms: _581  and  _582
REMARK  239  A    between atoms: _584  and  _586
REMARK  240  A    between atoms: _586  and  _587
REMARK  241  A    between atoms: _586  and  _589
REMARK  242  A    between atoms: _589  and  _590
REMARK  243  A    between atoms: _593  and  _595
REMARK  244  A    between atoms: _595  and  _596
REMARK  245  A    between atoms: _595  and  _598
REMARK  246  A    between atoms: _598  and  _599
REMARK  247  A    between atoms: _602  and  _604
REMARK  248  A    between atoms: _604  and  _605
REMARK  249  A    between atoms: _607  and  _609
REMARK  250  A    between atoms: _609  and  _610
REMARK  251  A    between atoms: _609  and  _612
REMARK  252  A    between atoms: _612  and  _613
REMARK  253  A    between atoms: _615  and  _617
REMARK  254  A    between atoms: _617  and  _618
REMARK  255  A    between atoms: _617  and  _620
REMARK  256  A    between atoms: _620  and  _621
REMARK  257  A    between atoms: _631  and  _633
REMARK  258  A    between atoms: _633  and  _634
REMARK  259  A    between atoms: _633  and  _636
REMARK  260  A    between atoms: _636  and  _637
REMARK  261  A    between atoms: _639  and  _641
REMARK  262  A    between atoms: _641  and  _642
REMARK  263  A    between atoms: _641  and  _644
REMARK  264  A    between atoms: _644  and  _645
REMARK  265  A    between atoms: _648  and  _650
REMARK  266  A    between atoms: _650  and  _651
REMARK  267  A    between atoms: _654  and  _656
REMARK  268  A    between atoms: _656  and  _657
REMARK  269  A    between atoms: _656  and  _659
REMARK  270  A    between atoms: _659  and  _660
REMARK  271  A    between atoms: _662  and  _664
REMARK  272  A    between atoms: _664  and  _665
REMARK  273  A    between atoms: _664  and  _667
REMARK  274  A    between atoms: _667  and  _668
REMARK  275  A    between atoms: _668  and  _669
REMARK  276  A    between atoms: _673  and  _674
REMARK  277  A    between atoms: _679  and  _681
REMARK  278  A    between atoms: _681  and  _682
REMARK  279  A    between atoms: _681  and  _684
REMARK  280  A    between atoms: _684  and  _685
REMARK  281  A    between atoms: _687  and  _689
REMARK  282  A    between atoms: _689  and  _690
REMARK  283  A    between atoms: _689  and  _692
REMARK  284  A    between atoms: _692  and  _693
REMARK  285  A    between atoms: _693  and  _694
REMARK  286  A    between atoms: _699  and  _701
REMARK  287  A    between atoms: _701  and  _702
REMARK  288  A    between atoms: _701  and  _704
REMARK  289  A    between atoms: _704  and  _705
REMARK  290  A    between atoms: _705  and  _706
REMARK  291  A    between atoms: _711  and  _713
REMARK  292  A    between atoms: _713  and  _714
REMARK  293  A    between atoms: _713  and  _716
REMARK  294  A    between atoms: _716  and  _717
REMARK  295  A    between atoms: _720  and  _722
REMARK  296  A    between atoms: _722  and  _723
REMARK  297  A    between atoms: _722  and  _725
REMARK  298  A    between atoms: _725  and  _726
REMARK  299  A    between atoms: _729  and  _731
REMARK  300  A    between atoms: _731  and  _732
REMARK  301  A    between atoms: _731  and  _734
REMARK  302  A    between atoms: _734  and  _735
REMARK  303  A    between atoms: _741  and  _743
REMARK  304  A    between atoms: _743  and  _744
REMARK  305  A    between atoms: _743  and  _746
REMARK  306  A    between atoms: _746  and  _747
REMARK  307  A    between atoms: _752  and  _753
REMARK  308  A    between atoms: _755  and  _757
REMARK  309  A    between atoms: _757  and  _758
REMARK  310  A    between atoms: _757  and  _760
REMARK  311  A    between atoms: _760  and  _761
REMARK  312  A    between atoms: _767  and  _769
REMARK  313  A    between atoms: _769  and  _770
REMARK  314  A    between atoms: _769  and  _772
REMARK  315  A    between atoms: _772  and  _773
REMARK  316  A    between atoms: _778  and  _780
REMARK  317  A    between atoms: _780  and  _781
REMARK  318  A    between atoms: _780  and  _783
REMARK  319  A    between atoms: _783  and  _784
REMARK  320  A    between atoms: _784  and  _785
REMARK                            x       y       z     vdW  Elec       q    Type
REMARK                         _______ _______ _______ _____ _____    ______ ____
ROOT
ATOM      1  O   HOH     1       7.671  46.874  21.455  0.00  0.00    +0.000 OA
ENDROOT
TORSDOF 0
REMARK  Name = ../refined-set-2016/3drf/3drf_pocket.pdb
REMARK  320 active torsions:
REMARK  status: ('A' for Active; 'I' for Inactive)
REMARK    1  A    between atoms: _1  and  _3
REMARK    2  A    between atoms: _3  and  _4
REMARK    3  A    between atoms: _3  and  _6
REMARK    4  A    between atoms: _6  and  _7
REMARK    5  A    between atoms: _12  and  _13
REMARK    6  A    between atoms: _15  and  _17
REMARK    7  A    between atoms: _17  and  _18
REMARK    8  A    between atoms: _17  and  _20
REMARK    9  A    between atoms: _20  and  _21
REMARK   10  A    between atoms: _21  and  _22
REMARK   11  A    between atoms: _27  and  _29
REMARK   12  A    between atoms: _29  and  _30
REMARK   13  A    between atoms: _29  and  _32
REMARK   14  A    between atoms: _32  and  _33
REMARK   15  A    between atoms: _35  and  _37
REMARK   16  A    between atoms: _37  and  _38
REMARK   17  A    between atoms: _37  and  _40
REMARK   18  A    between atoms: _40  and  _41
REMARK   19  A    between atoms: _44  and  _46
REMARK   20  A    between atoms: _46  and  _47
REMARK   21  A    between atoms: _46  and  _49
REMARK   22  A    between atoms: _49  and  _50
REMARK   23  A    between atoms: _52  and  _54
REMARK   24  A    between atoms: _54  and  _55
REMARK   25  A    between atoms: _54  and  _57
REMARK   26  A    between atoms: _57  and  _58
REMARK   27  A    between atoms: _60  and  _62
REMARK   28  A    between atoms: _62  and  _63
REMARK   29  A    between atoms: _65  and  _67
REMARK   30  A    between atoms: _67  and  _68
REMARK   31  A    between atoms: _67  and  _70
REMARK   32  A    between atoms: _70  and  _71
REMARK   33  A    between atoms: _73  and  _75
REMARK   34  A    between atoms: _75  and  _76
REMARK   35  A    between atoms: _75  and  _78
REMARK   36  A    between atoms: _78  and  _79
REMARK   37  A    between atoms: _84  and  _86
REMARK   38  A    between atoms: _86  and  _87
REMARK   39  A    between atoms: _86  and  _89
REMARK   40  A    between atoms: _89  and  _90
REMARK   41  A    between atoms: _93  and  _95
REMARK   42  A    between atoms: _95  and  _96
REMARK   43  A    between atoms: _99  and  _101
REMARK   44  A    between atoms: _101  and  _102
REMARK   45  A    between atoms: _101  and  _104
REMARK   46  A    between atoms: _104  and  _105
REMARK   47  A    between atoms: _108  and  _110
REMARK   48  A    between atoms: _110  and  _111
REMARK   49  A    between atoms: _110  and  _113
REMARK   50  A    between atoms: _113  and  _114
REMARK   51  A    between atoms: _120  and  _122
REMARK   52  A    between atoms: _122  and  _123
REMARK   53  A    between atoms: _126  and  _128
REMARK   54  A    between atoms: _128  and  _129
REMARK   55  A    between atoms: _128  and  _131
REMARK   56  A    between atoms: _131  and  _132
REMARK   57  A    between atoms: _135  and  _137
REMARK   58  A    between atoms: _137  and  _138
REMARK   59  A    between atoms: _140  and  _142
REMARK   60  A    between atoms: _142  and  _143
REMARK   61  A    between atoms: _142  and  _145
REMARK   62  A    between atoms: _145  and  _146
REMARK   63  A    between atoms: _146  and  _147
REMARK   64  A    between atoms: _152  and  _154
REMARK   65  A    between atoms: _154  and  _155
REMARK   66  A    between atoms: _157  and  _159
REMARK   67  A    between atoms: _159  and  _160
REMARK   68  A    between atoms: _159  and  _162
REMARK   69  A    between atoms: _162  and  _163
REMARK   70  A    between atoms: _166  and  _168
REMARK   71  A    between atoms: _168  and  _169
REMARK   72  A    between atoms: _168  and  _171
REMARK   73  A    between atoms: _171  and  _172
REMARK   74  A    between atoms: _178  and  _180
REMARK   75  A    between atoms: _180  and  _181
REMARK   76  A    between atoms: _180  and  _183
REMARK   77  A    between atoms: _183  and  _184
REMARK   78  A    between atoms: _187  and  _189
REMARK   79  A    between atoms: _189  and  _190
REMARK   80  A    between atoms: _189  and  _192
REMARK   81  A    between atoms: _192  and  _193
REMARK   82  A    between atoms: _199  and  _201
REMARK   83  A    between atoms: _201  and  _202
REMARK   84  A    between atoms: _201  and  _204
REMARK   85  A    between atoms: _204  and  _205
REMARK   86  A    between atoms: _211  and  _213
REMARK   87  A    between atoms: _213  and  _214
REMARK   88  A    between atoms: _213  and  _216
REMARK   89  A    between atoms: _216  and  _217
REMARK   90  A    between atoms: _220  and  _222
REMARK   91  A    between atoms: _222  and  _223
REMARK   92  A    between atoms: _222  and  _225
REMARK   93  A    between atoms: _225  and  _226
REMARK   94  A    between atoms: _229  and  _231
REMARK   95  A    between atoms: _231  and  _232
REMARK   96  A    between atoms: _231  and  _234
REMARK   97  A    between atoms: _234  and  _235
REMARK   98  A    between atoms: _235  and  _236
REMARK   99  A    between atoms: _236  and  _237
REMARK  100  A    between atoms: _246  and  _248
REMARK  101  A    between atoms: _248  and  _249
REMARK  102  A    between atoms: _248  and  _251
REMARK  103  A    between atoms: _251  and  _252
REMARK  104  A    between atoms: _255  and  _257
REMARK  105  A    between atoms: _257  and  _258
REMARK  106  A    between atoms: _257  and  _260
REMARK  107  A    between atoms: _260  and  _261
REMARK  108  A    between atoms: _263  and  _265
REMARK  109  A    between atoms: _265  and  _266
REMARK  110  A    between atoms: _265  and  _268
REMARK  111  A    between atoms: _268  and  _269
REMARK  112  A    between atoms: _269  and  _270
REMARK  113  A    between atoms: _275  and  _277
REMARK  114  A    between atoms: _277  and  _278
REMARK  115  A    between atoms: _277  and  _280
REMARK  116  A    between atoms: _280  and  _281
REMARK  117  A    between atoms: _283  and  _285
REMARK  118  A    between atoms: _285  and  _286
REMARK  119  A    between atoms: _288  and  _290
REMARK  120  A    between atoms: _290  and  _291
REMARK  121  A    between atoms: _290  and  _293
REMARK  122  A    between atoms: _293  and  _294
REMARK  123  A    between atoms: _299  and  _301
REMARK  124  A    between atoms: _301  and  _302
REMARK  125  A    between atoms: _304  and  _306
REMARK  126  A    between atoms: _306  and  _307
REMARK  127  A    between atoms: _306  and  _309
REMARK  128  A    between atoms: _309  and  _310
REMARK  129  A    between atoms: _315  and  _316
REMARK  130  A    between atoms: _318  and  _320
REMARK  131  A    between atoms: _320  and  _321
REMARK  132  A    between atoms: _320  and  _323
REMARK  133  A    between atoms: _323  and  _324
REMARK  134  A    between atoms: _330  and  _332
REMARK  135  A    between atoms: _332  and  _333
REMARK  136  A    between atoms: _332  and  _335
REMARK  137  A    between atoms: _335  and  _336
REMARK  138  A    between atoms: _339  and  _341
REMARK  139  A    between atoms: _341  and  _342
REMARK  140  A    between atoms: _341  and  _344
REMARK  141  A    between atoms: _344  and  _345
REMARK  142  A    between atoms: _345  and  _346
REMARK  143  A    between atoms: _349  and  _351
REMARK  144  A    between atoms: _351  and  _352
REMARK  145  A    between atoms: _351  and  _354
REMARK  146  A    between atoms: _354  and  _355
REMARK  147  A    between atoms: _358  and  _360
REMARK  148  A    between atoms: _360  and  _361
REMARK  149  A    between atoms: _360  and  _363
REMARK  150  A    between atoms: _363  and  _364
REMARK  151  A    between atoms: _367  and  _369
REMARK  152  A    between atoms: _369  and  _370
REMARK  153  A    between atoms: _372  and  _374
REMARK  154  A    between atoms: _374  and  _375
REMARK  155  A    between atoms: _374  and  _377
REMARK  156  A    between atoms: _380  and  _382
REMARK  157  A    between atoms: _382  and  _383
REMARK  158  A    between atoms: _382  and  _385
REMARK  159  A    between atoms: _385  and  _386
REMARK  160  A    between atoms: _388  and  _390
REMARK  161  A    between atoms: _390  and  _391
REMARK  162  A    between atoms: _390  and  _393
REMARK  163  A    between atoms: _393  and  _394
REMARK  164  A    between atoms: _394  and  _395
REMARK  165  A    between atoms: _397  and  _399
REMARK  166  A    between atoms: _399  and  _400
REMARK  167  A    between atoms: _399  and  _402
REMARK  168  A    between atoms: _402  and  _403
REMARK  169  A    between atoms: _408  and  _409
REMARK  170  A    between atoms: _411  and  _413
REMARK  171  A    between atoms: _413  and  _414
REMARK  172  A    between atoms: _413  and  _416
REMARK  173  A    between atoms: _416  and  _417
REMARK  174  A    between atoms: _420  and  _422
REMARK  175  A    between atoms: _422  and  _423
REMARK  176  A    between atoms: _422  and  _425
REMARK  177  A    between atoms: _425  and  _426
REMARK  178  A    between atoms: _428  and  _430
REMARK  179  A    between atoms: _430  and  _431
REMARK  180  A    between atoms: _430  and  _433
REMARK  181  A    between atoms: _433  and  _434
REMARK  182  A    between atoms: _437  and  _439
REMARK  183  A    between atoms: _439  and  _440
REMARK  184  A    between atoms: _439  and  _442
REMARK  185  A    between atoms: _442  and  _443
REMARK  186  A    between atoms: _448  and  _449
REMARK  187  A    between atoms: _451  and  _453
REMARK  188  A    between atoms: _453  and  _454
REMARK  189  A    between atoms: _453  and  _456
REMARK  190  A    between atoms: _456  and  _457
REMARK  191  A    between atoms: _459  and  _461
REMARK  192  A    between atoms: _461  and  _462
REMARK  193  A    between atoms: _461  and  _464
REMARK  194  A    between atoms: _464  and  _465
REMARK  195  A    between atoms: _471  and  _473
REMARK  196  A    between atoms: _473  and  _474
REMARK  197  A    between atoms: _473  and  _476
REMARK  198  A    between atoms: _476  and  _477
REMARK  199  A    between atoms: _477  and  _478
REMARK  200  A    between atoms: _478  and  _479
REMARK  201  A    between atoms: _488  and  _490
REMARK  202  A    between atoms: _490  and  _491
REMARK  203  A    between atoms: _490  and  _493
REMARK  204  A    between atoms: _496  and  _498
REMARK  205  A    between atoms: _498  and  _499
REMARK  206  A    between atoms: _501  and  _503
REMARK  207  A    between atoms: _503  and  _504
REMARK  208  A    between atoms: _503  and  _506
REMARK  209  A    between atoms: _506  and  _507
REMARK  210  A    between atoms: _510  and  _512
REMARK  211  A    between atoms: _512  and  _513
REMARK  212  A    between atoms: _512  and  _515
REMARK  213  A    between atoms: _515  and  _516
REMARK  214  A    between atoms: _516  and  _517
REMARK  215  A    between atoms: _519  and  _521
REMARK  216  A    between atoms: _521  and  _522
REMARK  217  A    between atoms: _521  and  _524
REMARK  218  A    between atoms: _524  and  _525
REMARK  219  A    between atoms: _531  and  _533
REMARK  220  A    between atoms: _533  and  _534
REMARK  221  A    between atoms: _533  and  _536
REMARK  222  A    between atoms: _536  and  _537
REMARK  223  A    between atoms: _542  and  _544
REMARK  224  A    between atoms: _544  and  _545
REMARK  225  A    between atoms: _544  and  _547
REMARK  226  A    between atoms: _547  and  _548
REMARK  227  A    between atoms: _558  and  _560
REMARK  228  A    between atoms: _560  and  _561
REMARK  229  A    between atoms: _560  and  _563
REMARK  230  A    between atoms: _566  and  _568
REMARK  231  A    between atoms: _568  and  _569
REMARK  232  A    between atoms: _568  and  _571
REMARK  233  A    between atoms: _571  and  _572
REMARK  234  A    between atoms: _575  and  _577
REMARK  235  A    between atoms: _577  and  _578
REMARK  236  A    between atoms: _577  and  _580
REMARK  237  A    between atoms: _580  and  _581
REMARK  238  A    between atoms: _581  and  _582
REMARK  239  A    between atoms: _584  and  _586
REMARK  240  A    between atoms: _586  and  _587
REMARK  241  A    between atoms: _586  and  _589
REMARK  242  A    between atoms: _589  and  _590
REMARK  243  A    between atoms: _593  and  _595
REMARK  244  A    between atoms: _595  and  _596
REMARK  245  A    between atoms: _595  and  _598
REMARK  246  A    between atoms: _598  and  _599
REMARK  247  A    between atoms: _602  and  _604
REMARK  248  A    between atoms: _604  and  _605
REMARK  249  A    between atoms: _607  and  _609
REMARK  250  A    between atoms: _609  and  _610
REMARK  251  A    between atoms: _609  and  _612
REMARK  252  A    between atoms: _612  and  _613
REMARK  253  A    between atoms: _615  and  _617
REMARK  254  A    between atoms: _617  and  _618
REMARK  255  A    between atoms: _617  and  _620
REMARK  256  A    between atoms: _620  and  _621
REMARK  257  A    between atoms: _631  and  _633
REMARK  258  A    between atoms: _633  and  _634
REMARK  259  A    between atoms: _633  and  _636
REMARK  260  A    between atoms: _636  and  _637
REMARK  261  A    between atoms: _639  and  _641
REMARK  262  A    between atoms: _641  and  _642
REMARK  263  A    between atoms: _641  and  _644
REMARK  264  A    between atoms: _644  and  _645
REMARK  265  A    between atoms: _648  and  _650
REMARK  266  A    between atoms: _650  and  _651
REMARK  267  A    between atoms: _654  and  _656
REMARK  268  A    between atoms: _656  and  _657
REMARK  269  A    between atoms: _656  and  _659
REMARK  270  A    between atoms: _659  and  _660
REMARK  271  A    between atoms: _662  and  _664
REMARK  272  A    between atoms: _664  and  _665
REMARK  273  A    between atoms: _664  and  _667
REMARK  274  A    between atoms: _667  and  _668
REMARK  275  A    between atoms: _668  and  _669
REMARK  276  A    between atoms: _673  and  _674
REMARK  277  A    between atoms: _679  and  _681
REMARK  278  A    between atoms: _681  and  _682
REMARK  279  A    between atoms: _681  and  _684
REMARK  280  A    between atoms: _684  and  _685
REMARK  281  A    between atoms: _687  and  _689
REMARK  282  A    between atoms: _689  and  _690
REMARK  283  A    between atoms: _689  and  _692
REMARK  284  A    between atoms: _692  and  _693
REMARK  285  A    between atoms: _693  and  _694
REMARK  286  A    between atoms: _699  and  _701
REMARK  287  A    between atoms: _701  and  _702
REMARK  288  A    between atoms: _701  and  _704
REMARK  289  A    between atoms: _704  and  _705
REMARK  290  A    between atoms: _705  and  _706
REMARK  291  A    between atoms: _711  and  _713
REMARK  292  A    between atoms: _713  and  _714
REMARK  293  A    between atoms: _713  and  _716
REMARK  294  A    between atoms: _716  and  _717
REMARK  295  A    between atoms: _720  and  _722
REMARK  296  A    between atoms: _722  and  _723
REMARK  297  A    between atoms: _722  and  _725
REMARK  298  A    between atoms: _725  and  _726
REMARK  299  A    between atoms: _729  and  _731
REMARK  300  A    between atoms: _731  and  _732
REMARK  301  A    between atoms: _731  and  _734
REMARK  302  A    between atoms: _734  and  _735
REMARK  303  A    between atoms: _741  and  _743
REMARK  304  A    between atoms: _743  and  _744
REMARK  305  A    between atoms: _743  and  _746
REMARK  306  A    between atoms: _746  and  _747
REMARK  307  A    between atoms: _752  and  _753
REMARK  308  A    between atoms: _755  and  _757
REMARK  309  A    between atoms: _757  and  _758
REMARK  310  A    between atoms: _757  and  _760
REMARK  311  A    between atoms: _760  and  _761
REMARK  312  A    between atoms: _767  and  _769
REMARK  313  A    between atoms: _769  and  _770
REMARK  314  A    between atoms: _769  and  _772
REMARK  315  A    between atoms: _772  and  _773
REMARK  316  A    between atoms: _778  and  _780
REMARK  317  A    between atoms: _780  and  _781
REMARK  318  A    between atoms: _780  and  _783
REMARK  319  A    between atoms: _783  and  _784
REMARK  320  A    between atoms: _784  and  _785
REMARK                            x       y       z     vdW  Elec       q    Type
REMARK                         _______ _______ _______ _____ _____    ______ ____
ROOT
ATOM      1  O   HOH     1      17.933  41.785  18.799  0.00  0.00    +0.000 OA
ENDROOT
TORSDOF 0
REMARK  Name = ../refined-set-2016/3drf/3drf_pocket.pdb
REMARK  320 active torsions:
REMARK  status: ('A' for Active; 'I' for Inactive)
REMARK    1  A    between atoms: _1  and  _3
REMARK    2  A    between atoms: _3  and  _4
REMARK    3  A    between atoms: _3  and  _6
REMARK    4  A    between atoms: _6  and  _7
REMARK    5  A    between atoms: _12  and  _13
REMARK    6  A    between atoms: _15  and  _17
REMARK    7  A    between atoms: _17  and  _18
REMARK    8  A    between atoms: _17  and  _20
REMARK    9  A    between atoms: _20  and  _21
REMARK   10  A    between atoms: _21  and  _22
REMARK   11  A    between atoms: _27  and  _29
REMARK   12  A    between atoms: _29  and  _30
REMARK   13  A    between atoms: _29  and  _32
REMARK   14  A    between atoms: _32  and  _33
REMARK   15  A    between atoms: _35  and  _37
REMARK   16  A    between atoms: _37  and  _38
REMARK   17  A    between atoms: _37  and  _40
REMARK   18  A    between atoms: _40  and  _41
REMARK   19  A    between atoms: _44  and  _46
REMARK   20  A    between atoms: _46  and  _47
REMARK   21  A    between atoms: _46  and  _49
REMARK   22  A    between atoms: _49  and  _50
REMARK   23  A    between atoms: _52  and  _54
REMARK   24  A    between atoms: _54  and  _55
REMARK   25  A    between atoms: _54  and  _57
REMARK   26  A    between atoms: _57  and  _58
REMARK   27  A    between atoms: _60  and  _62
REMARK   28  A    between atoms: _62  and  _63
REMARK   29  A    between atoms: _65  and  _67
REMARK   30  A    between atoms: _67  and  _68
REMARK   31  A    between atoms: _67  and  _70
REMARK   32  A    between atoms: _70  and  _71
REMARK   33  A    between atoms: _73  and  _75
REMARK   34  A    between atoms: _75  and  _76
REMARK   35  A    between atoms: _75  and  _78
REMARK   36  A    between atoms: _78  and  _79
REMARK   37  A    between atoms: _84  and  _86
REMARK   38  A    between atoms: _86  and  _87
REMARK   39  A    between atoms: _86  and  _89
REMARK   40  A    between atoms: _89  and  _90
REMARK   41  A    between atoms: _93  and  _95
REMARK   42  A    between atoms: _95  and  _96
REMARK   43  A    between atoms: _99  and  _101
REMARK   44  A    between atoms: _101  and  _102
REMARK   45  A    between atoms: _101  and  _104
REMARK   46  A    between atoms: _104  and  _105
REMARK   47  A    between atoms: _108  and  _110
REMARK   48  A    between atoms: _110  and  _111
REMARK   49  A    between atoms: _110  and  _113
REMARK   50  A    between atoms: _113  and  _114
REMARK   51  A    between atoms: _120  and  _122
REMARK   52  A    between atoms: _122  and  _123
REMARK   53  A    between atoms: _126  and  _128
REMARK   54  A    between atoms: _128  and  _129
REMARK   55  A    between atoms: _128  and  _131
REMARK   56  A    between atoms: _131  and  _132
REMARK   57  A    between atoms: _135  and  _137
REMARK   58  A    between atoms: _137  and  _138
REMARK   59  A    between atoms: _140  and  _142
REMARK   60  A    between atoms: _142  and  _143
REMARK   61  A    between atoms: _142  and  _145
REMARK   62  A    between atoms: _145  and  _146
REMARK   63  A    between atoms: _146  and  _147
REMARK   64  A    between atoms: _152  and  _154
REMARK   65  A    between atoms: _154  and  _155
REMARK   66  A    between atoms: _157  and  _159
REMARK   67  A    between atoms: _159  and  _160
REMARK   68  A    between atoms: _159  and  _162
REMARK   69  A    between atoms: _162  and  _163
REMARK   70  A    between atoms: _166  and  _168
REMARK   71  A    between atoms: _168  and  _169
REMARK   72  A    between atoms: _168  and  _171
REMARK   73  A    between atoms: _171  and  _172
REMARK   74  A    between atoms: _178  and  _180
REMARK   75  A    between atoms: _180  and  _181
REMARK   76  A    between atoms: _180  and  _183
REMARK   77  A    between atoms: _183  and  _184
REMARK   78  A    between atoms: _187  and  _189
REMARK   79  A    between atoms: _189  and  _190
REMARK   80  A    between atoms: _189  and  _192
REMARK   81  A    between atoms: _192  and  _193
REMARK   82  A    between atoms: _199  and  _201
REMARK   83  A    between atoms: _201  and  _202
REMARK   84  A    between atoms: _201  and  _204
REMARK   85  A    between atoms: _204  and  _205
REMARK   86  A    between atoms: _211  and  _213
REMARK   87  A    between atoms: _213  and  _214
REMARK   88  A    between atoms: _213  and  _216
REMARK   89  A    between atoms: _216  and  _217
REMARK   90  A    between atoms: _220  and  _222
REMARK   91  A    between atoms: _222  and  _223
REMARK   92  A    between atoms: _222  and  _225
REMARK   93  A    between atoms: _225  and  _226
REMARK   94  A    between atoms: _229  and  _231
REMARK   95  A    between atoms: _231  and  _232
REMARK   96  A    between atoms: _231  and  _234
REMARK   97  A    between atoms: _234  and  _235
REMARK   98  A    between atoms: _235  and  _236
REMARK   99  A    between atoms: _236  and  _237
REMARK  100  A    between atoms: _246  and  _248
REMARK  101  A    between atoms: _248  and  _249
REMARK  102  A    between atoms: _248  and  _251
REMARK  103  A    between atoms: _251  and  _252
REMARK  104  A    between atoms: _255  and  _257
REMARK  105  A    between atoms: _257  and  _258
REMARK  106  A    between atoms: _257  and  _260
REMARK  107  A    between atoms: _260  and  _261
REMARK  108  A    between atoms: _263  and  _265
REMARK  109  A    between atoms: _265  and  _266
REMARK  110  A    between atoms: _265  and  _268
REMARK  111  A    between atoms: _268  and  _269
REMARK  112  A    between atoms: _269  and  _270
REMARK  113  A    between atoms: _275  and  _277
REMARK  114  A    between atoms: _277  and  _278
REMARK  115  A    between atoms: _277  and  _280
REMARK  116  A    between atoms: _280  and  _281
REMARK  117  A    between atoms: _283  and  _285
REMARK  118  A    between atoms: _285  and  _286
REMARK  119  A    between atoms: _288  and  _290
REMARK  120  A    between atoms: _290  and  _291
REMARK  121  A    between atoms: _290  and  _293
REMARK  122  A    between atoms: _293  and  _294
REMARK  123  A    between atoms: _299  and  _301
REMARK  124  A    between atoms: _301  and  _302
REMARK  125  A    between atoms: _304  and  _306
REMARK  126  A    between atoms: _306  and  _307
REMARK  127  A    between atoms: _306  and  _309
REMARK  128  A    between atoms: _309  and  _310
REMARK  129  A    between atoms: _315  and  _316
REMARK  130  A    between atoms: _318  and  _320
REMARK  131  A    between atoms: _320  and  _321
REMARK  132  A    between atoms: _320  and  _323
REMARK  133  A    between atoms: _323  and  _324
REMARK  134  A    between atoms: _330  and  _332
REMARK  135  A    between atoms: _332  and  _333
REMARK  136  A    between atoms: _332  and  _335
REMARK  137  A    between atoms: _335  and  _336
REMARK  138  A    between atoms: _339  and  _341
REMARK  139  A    between atoms: _341  and  _342
REMARK  140  A    between atoms: _341  and  _344
REMARK  141  A    between atoms: _344  and  _345
REMARK  142  A    between atoms: _345  and  _346
REMARK  143  A    between atoms: _349  and  _351
REMARK  144  A    between atoms: _351  and  _352
REMARK  145  A    between atoms: _351  and  _354
REMARK  146  A    between atoms: _354  and  _355
REMARK  147  A    between atoms: _358  and  _360
REMARK  148  A    between atoms: _360  and  _361
REMARK  149  A    between atoms: _360  and  _363
REMARK  150  A    between atoms: _363  and  _364
REMARK  151  A    between atoms: _367  and  _369
REMARK  152  A    between atoms: _369  and  _370
REMARK  153  A    between atoms: _372  and  _374
REMARK  154  A    between atoms: _374  and  _375
REMARK  155  A    between atoms: _374  and  _377
REMARK  156  A    between atoms: _380  and  _382
REMARK  157  A    between atoms: _382  and  _383
REMARK  158  A    between atoms: _382  and  _385
REMARK  159  A    between atoms: _385  and  _386
REMARK  160  A    between atoms: _388  and  _390
REMARK  161  A    between atoms: _390  and  _391
REMARK  162  A    between atoms: _390  and  _393
REMARK  163  A    between atoms: _393  and  _394
REMARK  164  A    between atoms: _394  and  _395
REMARK  165  A    between atoms: _397  and  _399
REMARK  166  A    between atoms: _399  and  _400
REMARK  167  A    between atoms: _399  and  _402
REMARK  168  A    between atoms: _402  and  _403
REMARK  169  A    between atoms: _408  and  _409
REMARK  170  A    between atoms: _411  and  _413
REMARK  171  A    between atoms: _413  and  _414
REMARK  172  A    between atoms: _413  and  _416
REMARK  173  A    between atoms: _416  and  _417
REMARK  174  A    between atoms: _420  and  _422
REMARK  175  A    between atoms: _422  and  _423
REMARK  176  A    between atoms: _422  and  _425
REMARK  177  A    between atoms: _425  and  _426
REMARK  178  A    between atoms: _428  and  _430
REMARK  179  A    between atoms: _430  and  _431
REMARK  180  A    between atoms: _430  and  _433
REMARK  181  A    between atoms: _433  and  _434
REMARK  182  A    between atoms: _437  and  _439
REMARK  183  A    between atoms: _439  and  _440
REMARK  184  A    between atoms: _439  and  _442
REMARK  185  A    between atoms: _442  and  _443
REMARK  186  A    between atoms: _448  and  _449
REMARK  187  A    between atoms: _451  and  _453
REMARK  188  A    between atoms: _453  and  _454
REMARK  189  A    between atoms: _453  and  _456
REMARK  190  A    between atoms: _456  and  _457
REMARK  191  A    between atoms: _459  and  _461
REMARK  192  A    between atoms: _461  and  _462
REMARK  193  A    between atoms: _461  and  _464
REMARK  194  A    between atoms: _464  and  _465
REMARK  195  A    between atoms: _471  and  _473
REMARK  196  A    between atoms: _473  and  _474
REMARK  197  A    between atoms: _473  and  _476
REMARK  198  A    between atoms: _476  and  _477
REMARK  199  A    between atoms: _477  and  _478
REMARK  200  A    between atoms: _478  and  _479
REMARK  201  A    between atoms: _488  and  _490
REMARK  202  A    between atoms: _490  and  _491
REMARK  203  A    between atoms: _490  and  _493
REMARK  204  A    between atoms: _496  and  _498
REMARK  205  A    between atoms: _498  and  _499
REMARK  206  A    between atoms: _501  and  _503
REMARK  207  A    between atoms: _503  and  _504
REMARK  208  A    between atoms: _503  and  _506
REMARK  209  A    between atoms: _506  and  _507
REMARK  210  A    between atoms: _510  and  _512
REMARK  211  A    between atoms: _512  and  _513
REMARK  212  A    between atoms: _512  and  _515
REMARK  213  A    between atoms: _515  and  _516
REMARK  214  A    between atoms: _516  and  _517
REMARK  215  A    between atoms: _519  and  _521
REMARK  216  A    between atoms: _521  and  _522
REMARK  217  A    between atoms: _521  and  _524
REMARK  218  A    between atoms: _524  and  _525
REMARK  219  A    between atoms: _531  and  _533
REMARK  220  A    between atoms: _533  and  _534
REMARK  221  A    between atoms: _533  and  _536
REMARK  222  A    between atoms: _536  and  _537
REMARK  223  A    between atoms: _542  and  _544
REMARK  224  A    between atoms: _544  and  _545
REMARK  225  A    between atoms: _544  and  _547
REMARK  226  A    between atoms: _547  and  _548
REMARK  227  A    between atoms: _558  and  _560
REMARK  228  A    between atoms: _560  and  _561
REMARK  229  A    between atoms: _560  and  _563
REMARK  230  A    between atoms: _566  and  _568
REMARK  231  A    between atoms: _568  and  _569
REMARK  232  A    between atoms: _568  and  _571
REMARK  233  A    between atoms: _571  and  _572
REMARK  234  A    between atoms: _575  and  _577
REMARK  235  A    between atoms: _577  and  _578
REMARK  236  A    between atoms: _577  and  _580
REMARK  237  A    between atoms: _580  and  _581
REMARK  238  A    between atoms: _581  and  _582
REMARK  239  A    between atoms: _584  and  _586
REMARK  240  A    between atoms: _586  and  _587
REMARK  241  A    between atoms: _586  and  _589
REMARK  242  A    between atoms: _589  and  _590
REMARK  243  A    between atoms: _593  and  _595
REMARK  244  A    between atoms: _595  and  _596
REMARK  245  A    between atoms: _595  and  _598
REMARK  246  A    between atoms: _598  and  _599
REMARK  247  A    between atoms: _602  and  _604
REMARK  248  A    between atoms: _604  and  _605
REMARK  249  A    between atoms: _607  and  _609
REMARK  250  A    between atoms: _609  and  _610
REMARK  251  A    between atoms: _609  and  _612
REMARK  252  A    between atoms: _612  and  _613
REMARK  253  A    between atoms: _615  and  _617
REMARK  254  A    between atoms: _617  and  _618
REMARK  255  A    between atoms: _617  and  _620
REMARK  256  A    between atoms: _620  and  _621
REMARK  257  A    between atoms: _631  and  _633
REMARK  258  A    between atoms: _633  and  _634
REMARK  259  A    between atoms: _633  and  _636
REMARK  260  A    between atoms: _636  and  _637
REMARK  261  A    between atoms: _639  and  _641
REMARK  262  A    between atoms: _641  and  _642
REMARK  263  A    between atoms: _641  and  _644
REMARK  264  A    between atoms: _644  and  _645
REMARK  265  A    between atoms: _648  and  _650
REMARK  266  A    between atoms: _650  and  _651
REMARK  267  A    between atoms: _654  and  _656
REMARK  268  A    between atoms: _656  and  _657
REMARK  269  A    between atoms: _656  and  _659
REMARK  270  A    between atoms: _659  and  _660
REMARK  271  A    between atoms: _662  and  _664
REMARK  272  A    between atoms: _664  and  _665
REMARK  273  A    between atoms: _664  and  _667
REMARK  274  A    between atoms: _667  and  _668
REMARK  275  A    between atoms: _668  and  _669
REMARK  276  A    between atoms: _673  and  _674
REMARK  277  A    between atoms: _679  and  _681
REMARK  278  A    between atoms: _681  and  _682
REMARK  279  A    between atoms: _681  and  _684
REMARK  280  A    between atoms: _684  and  _685
REMARK  281  A    between atoms: _687  and  _689
REMARK  282  A    between atoms: _689  and  _690
REMARK  283  A    between atoms: _689  and  _692
REMARK  284  A    between atoms: _692  and  _693
REMARK  285  A    between atoms: _693  and  _694
REMARK  286  A    between atoms: _699  and  _701
REMARK  287  A    between atoms: _701  and  _702
REMARK  288  A    between atoms: _701  and  _704
REMARK  289  A    between atoms: _704  and  _705
REMARK  290  A    between atoms: _705  and  _706
REMARK  291  A    between atoms: _711  and  _713
REMARK  292  A    between atoms: _713  and  _714
REMARK  293  A    between atoms: _713  and  _716
REMARK  294  A    between atoms: _716  and  _717
REMARK  295  A    between atoms: _720  and  _722
REMARK  296  A    between atoms: _722  and  _723
REMARK  297  A    between atoms: _722  and  _725
REMARK  298  A    between atoms: _725  and  _726
REMARK  299  A    between atoms: _729  and  _731
REMARK  300  A    between atoms: _731  and  _732
REMARK  301  A    between atoms: _731  and  _734
REMARK  302  A    between atoms: _734  and  _735
REMARK  303  A    between atoms: _741  and  _743
REMARK  304  A    between atoms: _743  and  _744
REMARK  305  A    between atoms: _743  and  _746
REMARK  306  A    between atoms: _746  and  _747
REMARK  307  A    between atoms: _752  and  _753
REMARK  308  A    between atoms: _755  and  _757
REMARK  309  A    between atoms: _757  and  _758
REMARK  310  A    between atoms: _757  and  _760
REMARK  311  A    between atoms: _760  and  _761
REMARK  312  A    between atoms: _767  and  _769
REMARK  313  A    between atoms: _769  and  _770
REMARK  314  A    between atoms: _769  and  _772
REMARK  315  A    between atoms: _772  and  _773
REMARK  316  A    between atoms: _778  and  _780
REMARK  317  A    between atoms: _780  and  _781
REMARK  318  A    between atoms: _780  and  _783
REMARK  319  A    between atoms: _783  and  _784
REMARK  320  A    between atoms: _784  and  _785
REMARK                            x       y       z     vdW  Elec       q    Type
REMARK                         _______ _______ _______ _____ _____    ______ ____
ROOT
ATOM      1  O   HOH     1       9.624  48.392  20.427  0.00  0.00    +0.000 OA
ENDROOT
TORSDOF 0
REMARK  Name = ../refined-set-2016/3drf/3drf_pocket.pdb
REMARK  320 active torsions:
REMARK  status: ('A' for Active; 'I' for Inactive)
REMARK    1  A    between atoms: _1  and  _3
REMARK    2  A    between atoms: _3  and  _4
REMARK    3  A    between atoms: _3  and  _6
REMARK    4  A    between atoms: _6  and  _7
REMARK    5  A    between atoms: _12  and  _13
REMARK    6  A    between atoms: _15  and  _17
REMARK    7  A    between atoms: _17  and  _18
REMARK    8  A    between atoms: _17  and  _20
REMARK    9  A    between atoms: _20  and  _21
REMARK   10  A    between atoms: _21  and  _22
REMARK   11  A    between atoms: _27  and  _29
REMARK   12  A    between atoms: _29  and  _30
REMARK   13  A    between atoms: _29  and  _32
REMARK   14  A    between atoms: _32  and  _33
REMARK   15  A    between atoms: _35  and  _37
REMARK   16  A    between atoms: _37  and  _38
REMARK   17  A    between atoms: _37  and  _40
REMARK   18  A    between atoms: _40  and  _41
REMARK   19  A    between atoms: _44  and  _46
REMARK   20  A    between atoms: _46  and  _47
REMARK   21  A    between atoms: _46  and  _49
REMARK   22  A    between atoms: _49  and  _50
REMARK   23  A    between atoms: _52  and  _54
REMARK   24  A    between atoms: _54  and  _55
REMARK   25  A    between atoms: _54  and  _57
REMARK   26  A    between atoms: _57  and  _58
REMARK   27  A    between atoms: _60  and  _62
REMARK   28  A    between atoms: _62  and  _63
REMARK   29  A    between atoms: _65  and  _67
REMARK   30  A    between atoms: _67  and  _68
REMARK   31  A    between atoms: _67  and  _70
REMARK   32  A    between atoms: _70  and  _71
REMARK   33  A    between atoms: _73  and  _75
REMARK   34  A    between atoms: _75  and  _76
REMARK   35  A    between atoms: _75  and  _78
REMARK   36  A    between atoms: _78  and  _79
REMARK   37  A    between atoms: _84  and  _86
REMARK   38  A    between atoms: _86  and  _87
REMARK   39  A    between atoms: _86  and  _89
REMARK   40  A    between atoms: _89  and  _90
REMARK   41  A    between atoms: _93  and  _95
REMARK   42  A    between atoms: _95  and  _96
REMARK   43  A    between atoms: _99  and  _101
REMARK   44  A    between atoms: _101  and  _102
REMARK   45  A    between atoms: _101  and  _104
REMARK   46  A    between atoms: _104  and  _105
REMARK   47  A    between atoms: _108  and  _110
REMARK   48  A    between atoms: _110  and  _111
REMARK   49  A    between atoms: _110  and  _113
REMARK   50  A    between atoms: _113  and  _114
REMARK   51  A    between atoms: _120  and  _122
REMARK   52  A    between atoms: _122  and  _123
REMARK   53  A    between atoms: _126  and  _128
REMARK   54  A    between atoms: _128  and  _129
REMARK   55  A    between atoms: _128  and  _131
REMARK   56  A    between atoms: _131  and  _132
REMARK   57  A    between atoms: _135  and  _137
REMARK   58  A    between atoms: _137  and  _138
REMARK   59  A    between atoms: _140  and  _142
REMARK   60  A    between atoms: _142  and  _143
REMARK   61  A    between atoms: _142  and  _145
REMARK   62  A    between atoms: _145  and  _146
REMARK   63  A    between atoms: _146  and  _147
REMARK   64  A    between atoms: _152  and  _154
REMARK   65  A    between atoms: _154  and  _155
REMARK   66  A    between atoms: _157  and  _159
REMARK   67  A    between atoms: _159  and  _160
REMARK   68  A    between atoms: _159  and  _162
REMARK   69  A    between atoms: _162  and  _163
REMARK   70  A    between atoms: _166  and  _168
REMARK   71  A    between atoms: _168  and  _169
REMARK   72  A    between atoms: _168  and  _171
REMARK   73  A    between atoms: _171  and  _172
REMARK   74  A    between atoms: _178  and  _180
REMARK   75  A    between atoms: _180  and  _181
REMARK   76  A    between atoms: _180  and  _183
REMARK   77  A    between atoms: _183  and  _184
REMARK   78  A    between atoms: _187  and  _189
REMARK   79  A    between atoms: _189  and  _190
REMARK   80  A    between atoms: _189  and  _192
REMARK   81  A    between atoms: _192  and  _193
REMARK   82  A    between atoms: _199  and  _201
REMARK   83  A    between atoms: _201  and  _202
REMARK   84  A    between atoms: _201  and  _204
REMARK   85  A    between atoms: _204  and  _205
REMARK   86  A    between atoms: _211  and  _213
REMARK   87  A    between atoms: _213  and  _214
REMARK   88  A    between atoms: _213  and  _216
REMARK   89  A    between atoms: _216  and  _217
REMARK   90  A    between atoms: _220  and  _222
REMARK   91  A    between atoms: _222  and  _223
REMARK   92  A    between atoms: _222  and  _225
REMARK   93  A    between atoms: _225  and  _226
REMARK   94  A    between atoms: _229  and  _231
REMARK   95  A    between atoms: _231  and  _232
REMARK   96  A    between atoms: _231  and  _234
REMARK   97  A    between atoms: _234  and  _235
REMARK   98  A    between atoms: _235  and  _236
REMARK   99  A    between atoms: _236  and  _237
REMARK  100  A    between atoms: _246  and  _248
REMARK  101  A    between atoms: _248  and  _249
REMARK  102  A    between atoms: _248  and  _251
REMARK  103  A    between atoms: _251  and  _252
REMARK  104  A    between atoms: _255  and  _257
REMARK  105  A    between atoms: _257  and  _258
REMARK  106  A    between atoms: _257  and  _260
REMARK  107  A    between atoms: _260  and  _261
REMARK  108  A    between atoms: _263  and  _265
REMARK  109  A    between atoms: _265  and  _266
REMARK  110  A    between atoms: _265  and  _268
REMARK  111  A    between atoms: _268  and  _269
REMARK  112  A    between atoms: _269  and  _270
REMARK  113  A    between atoms: _275  and  _277
REMARK  114  A    between atoms: _277  and  _278
REMARK  115  A    between atoms: _277  and  _280
REMARK  116  A    between atoms: _280  and  _281
REMARK  117  A    between atoms: _283  and  _285
REMARK  118  A    between atoms: _285  and  _286
REMARK  119  A    between atoms: _288  and  _290
REMARK  120  A    between atoms: _290  and  _291
REMARK  121  A    between atoms: _290  and  _293
REMARK  122  A    between atoms: _293  and  _294
REMARK  123  A    between atoms: _299  and  _301
REMARK  124  A    between atoms: _301  and  _302
REMARK  125  A    between atoms: _304  and  _306
REMARK  126  A    between atoms: _306  and  _307
REMARK  127  A    between atoms: _306  and  _309
REMARK  128  A    between atoms: _309  and  _310
REMARK  129  A    between atoms: _315  and  _316
REMARK  130  A    between atoms: _318  and  _320
REMARK  131  A    between atoms: _320  and  _321
REMARK  132  A    between atoms: _320  and  _323
REMARK  133  A    between atoms: _323  and  _324
REMARK  134  A    between atoms: _330  and  _332
REMARK  135  A    between atoms: _332  and  _333
REMARK  136  A    between atoms: _332  and  _335
REMARK  137  A    between atoms: _335  and  _336
REMARK  138  A    between atoms: _339  and  _341
REMARK  139  A    between atoms: _341  and  _342
REMARK  140  A    between atoms: _341  and  _344
REMARK  141  A    between atoms: _344  and  _345
REMARK  142  A    between atoms: _345  and  _346
REMARK  143  A    between atoms: _349  and  _351
REMARK  144  A    between atoms: _351  and  _352
REMARK  145  A    between atoms: _351  and  _354
REMARK  146  A    between atoms: _354  and  _355
REMARK  147  A    between atoms: _358  and  _360
REMARK  148  A    between atoms: _360  and  _361
REMARK  149  A    between atoms: _360  and  _363
REMARK  150  A    between atoms: _363  and  _364
REMARK  151  A    between atoms: _367  and  _369
REMARK  152  A    between atoms: _369  and  _370
REMARK  153  A    between atoms: _372  and  _374
REMARK  154  A    between atoms: _374  and  _375
REMARK  155  A    between atoms: _374  and  _377
REMARK  156  A    between atoms: _380  and  _382
REMARK  157  A    between atoms: _382  and  _383
REMARK  158  A    between atoms: _382  and  _385
REMARK  159  A    between atoms: _385  and  _386
REMARK  160  A    between atoms: _388  and  _390
REMARK  161  A    between atoms: _390  and  _391
REMARK  162  A    between atoms: _390  and  _393
REMARK  163  A    between atoms: _393  and  _394
REMARK  164  A    between atoms: _394  and  _395
REMARK  165  A    between atoms: _397  and  _399
REMARK  166  A    between atoms: _399  and  _400
REMARK  167  A    between atoms: _399  and  _402
REMARK  168  A    between atoms: _402  and  _403
REMARK  169  A    between atoms: _408  and  _409
REMARK  170  A    between atoms: _411  and  _413
REMARK  171  A    between atoms: _413  and  _414
REMARK  172  A    between atoms: _413  and  _416
REMARK  173  A    between atoms: _416  and  _417
REMARK  174  A    between atoms: _420  and  _422
REMARK  175  A    between atoms: _422  and  _423
REMARK  176  A    between atoms: _422  and  _425
REMARK  177  A    between atoms: _425  and  _426
REMARK  178  A    between atoms: _428  and  _430
REMARK  179  A    between atoms: _430  and  _431
REMARK  180  A    between atoms: _430  and  _433
REMARK  181  A    between atoms: _433  and  _434
REMARK  182  A    between atoms: _437  and  _439
REMARK  183  A    between atoms: _439  and  _440
REMARK  184  A    between atoms: _439  and  _442
REMARK  185  A    between atoms: _442  and  _443
REMARK  186  A    between atoms: _448  and  _449
REMARK  187  A    between atoms: _451  and  _453
REMARK  188  A    between atoms: _453  and  _454
REMARK  189  A    between atoms: _453  and  _456
REMARK  190  A    between atoms: _456  and  _457
REMARK  191  A    between atoms: _459  and  _461
REMARK  192  A    between atoms: _461  and  _462
REMARK  193  A    between atoms: _461  and  _464
REMARK  194  A    between atoms: _464  and  _465
REMARK  195  A    between atoms: _471  and  _473
REMARK  196  A    between atoms: _473  and  _474
REMARK  197  A    between atoms: _473  and  _476
REMARK  198  A    between atoms: _476  and  _477
REMARK  199  A    between atoms: _477  and  _478
REMARK  200  A    between atoms: _478  and  _479
REMARK  201  A    between atoms: _488  and  _490
REMARK  202  A    between atoms: _490  and  _491
REMARK  203  A    between atoms: _490  and  _493
REMARK  204  A    between atoms: _496  and  _498
REMARK  205  A    between atoms: _498  and  _499
REMARK  206  A    between atoms: _501  and  _503
REMARK  207  A    between atoms: _503  and  _504
REMARK  208  A    between atoms: _503  and  _506
REMARK  209  A    between atoms: _506  and  _507
REMARK  210  A    between atoms: _510  and  _512
REMARK  211  A    between atoms: _512  and  _513
REMARK  212  A    between atoms: _512  and  _515
REMARK  213  A    between atoms: _515  and  _516
REMARK  214  A    between atoms: _516  and  _517
REMARK  215  A    between atoms: _519  and  _521
REMARK  216  A    between atoms: _521  and  _522
REMARK  217  A    between atoms: _521  and  _524
REMARK  218  A    between atoms: _524  and  _525
REMARK  219  A    between atoms: _531  and  _533
REMARK  220  A    between atoms: _533  and  _534
REMARK  221  A    between atoms: _533  and  _536
REMARK  222  A    between atoms: _536  and  _537
REMARK  223  A    between atoms: _542  and  _544
REMARK  224  A    between atoms: _544  and  _545
REMARK  225  A    between atoms: _544  and  _547
REMARK  226  A    between atoms: _547  and  _548
REMARK  227  A    between atoms: _558  and  _560
REMARK  228  A    between atoms: _560  and  _561
REMARK  229  A    between atoms: _560  and  _563
REMARK  230  A    between atoms: _566  and  _568
REMARK  231  A    between atoms: _568  and  _569
REMARK  232  A    between atoms: _568  and  _571
REMARK  233  A    between atoms: _571  and  _572
REMARK  234  A    between atoms: _575  and  _577
REMARK  235  A    between atoms: _577  and  _578
REMARK  236  A    between atoms: _577  and  _580
REMARK  237  A    between atoms: _580  and  _581
REMARK  238  A    between atoms: _581  and  _582
REMARK  239  A    between atoms: _584  and  _586
REMARK  240  A    between atoms: _586  and  _587
REMARK  241  A    between atoms: _586  and  _589
REMARK  242  A    between atoms: _589  and  _590
REMARK  243  A    between atoms: _593  and  _595
REMARK  244  A    between atoms: _595  and  _596
REMARK  245  A    between atoms: _595  and  _598
REMARK  246  A    between atoms: _598  and  _599
REMARK  247  A    between atoms: _602  and  _604
REMARK  248  A    between atoms: _604  and  _605
REMARK  249  A    between atoms: _607  and  _609
REMARK  250  A    between atoms: _609  and  _610
REMARK  251  A    between atoms: _609  and  _612
REMARK  252  A    between atoms: _612  and  _613
REMARK  253  A    between atoms: _615  and  _617
REMARK  254  A    between atoms: _617  and  _618
REMARK  255  A    between atoms: _617  and  _620
REMARK  256  A    between atoms: _620  and  _621
REMARK  257  A    between atoms: _631  and  _633
REMARK  258  A    between atoms: _633  and  _634
REMARK  259  A    between atoms: _633  and  _636
REMARK  260  A    between atoms: _636  and  _637
REMARK  261  A    between atoms: _639  and  _641
REMARK  262  A    between atoms: _641  and  _642
REMARK  263  A    between atoms: _641  and  _644
REMARK  264  A    between atoms: _644  and  _645
REMARK  265  A    between atoms: _648  and  _650
REMARK  266  A    between atoms: _650  and  _651
REMARK  267  A    between atoms: _654  and  _656
REMARK  268  A    between atoms: _656  and  _657
REMARK  269  A    between atoms: _656  and  _659
REMARK  270  A    between atoms: _659  and  _660
REMARK  271  A    between atoms: _662  and  _664
REMARK  272  A    between atoms: _664  and  _665
REMARK  273  A    between atoms: _664  and  _667
REMARK  274  A    between atoms: _667  and  _668
REMARK  275  A    between atoms: _668  and  _669
REMARK  276  A    between atoms: _673  and  _674
REMARK  277  A    between atoms: _679  and  _681
REMARK  278  A    between atoms: _681  and  _682
REMARK  279  A    between atoms: _681  and  _684
REMARK  280  A    between atoms: _684  and  _685
REMARK  281  A    between atoms: _687  and  _689
REMARK  282  A    between atoms: _689  and  _690
REMARK  283  A    between atoms: _689  and  _692
REMARK  284  A    between atoms: _692  and  _693
REMARK  285  A    between atoms: _693  and  _694
REMARK  286  A    between atoms: _699  and  _701
REMARK  287  A    between atoms: _701  and  _702
REMARK  288  A    between atoms: _701  and  _704
REMARK  289  A    between atoms: _704  and  _705
REMARK  290  A    between atoms: _705  and  _706
REMARK  291  A    between atoms: _711  and  _713
REMARK  292  A    between atoms: _713  and  _714
REMARK  293  A    between atoms: _713  and  _716
REMARK  294  A    between atoms: _716  and  _717
REMARK  295  A    between atoms: _720  and  _722
REMARK  296  A    between atoms: _722  and  _723
REMARK  297  A    between atoms: _722  and  _725
REMARK  298  A    between atoms: _725  and  _726
REMARK  299  A    between atoms: _729  and  _731
REMARK  300  A    between atoms: _731  and  _732
REMARK  301  A    between atoms: _731  and  _734
REMARK  302  A    between atoms: _734  and  _735
REMARK  303  A    between atoms: _741  and  _743
REMARK  304  A    between atoms: _743  and  _744
REMARK  305  A    between atoms: _743  and  _746
REMARK  306  A    between atoms: _746  and  _747
REMARK  307  A    between atoms: _752  and  _753
REMARK  308  A    between atoms: _755  and  _757
REMARK  309  A    between atoms: _757  and  _758
REMARK  310  A    between atoms: _757  and  _760
REMARK  311  A    between atoms: _760  and  _761
REMARK  312  A    between atoms: _767  and  _769
REMARK  313  A    between atoms: _769  and  _770
REMARK  314  A    between atoms: _769  and  _772
REMARK  315  A    between atoms: _772  and  _773
REMARK  316  A    between atoms: _778  and  _780
REMARK  317  A    between atoms: _780  and  _781
REMARK  318  A    between atoms: _780  and  _783
REMARK  319  A    between atoms: _783  and  _784
REMARK  320  A    between atoms: _784  and  _785
REMARK                            x       y       z     vdW  Elec       q    Type
REMARK                         _______ _______ _______ _____ _____    ______ ____
ROOT
ATOM      1  O   HOH     1       5.109  47.480  21.215  0.00  0.00    +0.000 OA
ENDROOT
TORSDOF 0
REMARK  Name = ../refined-set-2016/3drf/3drf_pocket.pdb
REMARK  320 active torsions:
REMARK  status: ('A' for Active; 'I' for Inactive)
REMARK    1  A    between atoms: _1  and  _3
REMARK    2  A    between atoms: _3  and  _4
REMARK    3  A    between atoms: _3  and  _6
REMARK    4  A    between atoms: _6  and  _7
REMARK    5  A    between atoms: _12  and  _13
REMARK    6  A    between atoms: _15  and  _17
REMARK    7  A    between atoms: _17  and  _18
REMARK    8  A    between atoms: _17  and  _20
REMARK    9  A    between atoms: _20  and  _21
REMARK   10  A    between atoms: _21  and  _22
REMARK   11  A    between atoms: _27  and  _29
REMARK   12  A    between atoms: _29  and  _30
REMARK   13  A    between atoms: _29  and  _32
REMARK   14  A    between atoms: _32  and  _33
REMARK   15  A    between atoms: _35  and  _37
REMARK   16  A    between atoms: _37  and  _38
REMARK   17  A    between atoms: _37  and  _40
REMARK   18  A    between atoms: _40  and  _41
REMARK   19  A    between atoms: _44  and  _46
REMARK   20  A    between atoms: _46  and  _47
REMARK   21  A    between atoms: _46  and  _49
REMARK   22  A    between atoms: _49  and  _50
REMARK   23  A    between atoms: _52  and  _54
REMARK   24  A    between atoms: _54  and  _55
REMARK   25  A    between atoms: _54  and  _57
REMARK   26  A    between atoms: _57  and  _58
REMARK   27  A    between atoms: _60  and  _62
REMARK   28  A    between atoms: _62  and  _63
REMARK   29  A    between atoms: _65  and  _67
REMARK   30  A    between atoms: _67  and  _68
REMARK   31  A    between atoms: _67  and  _70
REMARK   32  A    between atoms: _70  and  _71
REMARK   33  A    between atoms: _73  and  _75
REMARK   34  A    between atoms: _75  and  _76
REMARK   35  A    between atoms: _75  and  _78
REMARK   36  A    between atoms: _78  and  _79
REMARK   37  A    between atoms: _84  and  _86
REMARK   38  A    between atoms: _86  and  _87
REMARK   39  A    between atoms: _86  and  _89
REMARK   40  A    between atoms: _89  and  _90
REMARK   41  A    between atoms: _93  and  _95
REMARK   42  A    between atoms: _95  and  _96
REMARK   43  A    between atoms: _99  and  _101
REMARK   44  A    between atoms: _101  and  _102
REMARK   45  A    between atoms: _101  and  _104
REMARK   46  A    between atoms: _104  and  _105
REMARK   47  A    between atoms: _108  and  _110
REMARK   48  A    between atoms: _110  and  _111
REMARK   49  A    between atoms: _110  and  _113
REMARK   50  A    between atoms: _113  and  _114
REMARK   51  A    between atoms: _120  and  _122
REMARK   52  A    between atoms: _122  and  _123
REMARK   53  A    between atoms: _126  and  _128
REMARK   54  A    between atoms: _128  and  _129
REMARK   55  A    between atoms: _128  and  _131
REMARK   56  A    between atoms: _131  and  _132
REMARK   57  A    between atoms: _135  and  _137
REMARK   58  A    between atoms: _137  and  _138
REMARK   59  A    between atoms: _140  and  _142
REMARK   60  A    between atoms: _142  and  _143
REMARK   61  A    between atoms: _142  and  _145
REMARK   62  A    between atoms: _145  and  _146
REMARK   63  A    between atoms: _146  and  _147
REMARK   64  A    between atoms: _152  and  _154
REMARK   65  A    between atoms: _154  and  _155
REMARK   66  A    between atoms: _157  and  _159
REMARK   67  A    between atoms: _159  and  _160
REMARK   68  A    between atoms: _159  and  _162
REMARK   69  A    between atoms: _162  and  _163
REMARK   70  A    between atoms: _166  and  _168
REMARK   71  A    between atoms: _168  and  _169
REMARK   72  A    between atoms: _168  and  _171
REMARK   73  A    between atoms: _171  and  _172
REMARK   74  A    between atoms: _178  and  _180
REMARK   75  A    between atoms: _180  and  _181
REMARK   76  A    between atoms: _180  and  _183
REMARK   77  A    between atoms: _183  and  _184
REMARK   78  A    between atoms: _187  and  _189
REMARK   79  A    between atoms: _189  and  _190
REMARK   80  A    between atoms: _189  and  _192
REMARK   81  A    between atoms: _192  and  _193
REMARK   82  A    between atoms: _199  and  _201
REMARK   83  A    between atoms: _201  and  _202
REMARK   84  A    between atoms: _201  and  _204
REMARK   85  A    between atoms: _204  and  _205
REMARK   86  A    between atoms: _211  and  _213
REMARK   87  A    between atoms: _213  and  _214
REMARK   88  A    between atoms: _213  and  _216
REMARK   89  A    between atoms: _216  and  _217
REMARK   90  A    between atoms: _220  and  _222
REMARK   91  A    between atoms: _222  and  _223
REMARK   92  A    between atoms: _222  and  _225
REMARK   93  A    between atoms: _225  and  _226
REMARK   94  A    between atoms: _229  and  _231
REMARK   95  A    between atoms: _231  and  _232
REMARK   96  A    between atoms: _231  and  _234
REMARK   97  A    between atoms: _234  and  _235
REMARK   98  A    between atoms: _235  and  _236
REMARK   99  A    between atoms: _236  and  _237
REMARK  100  A    between atoms: _246  and  _248
REMARK  101  A    between atoms: _248  and  _249
REMARK  102  A    between atoms: _248  and  _251
REMARK  103  A    between atoms: _251  and  _252
REMARK  104  A    between atoms: _255  and  _257
REMARK  105  A    between atoms: _257  and  _258
REMARK  106  A    between atoms: _257  and  _260
REMARK  107  A    between atoms: _260  and  _261
REMARK  108  A    between atoms: _263  and  _265
REMARK  109  A    between atoms: _265  and  _266
REMARK  110  A    between atoms: _265  and  _268
REMARK  111  A    between atoms: _268  and  _269
REMARK  112  A    between atoms: _269  and  _270
REMARK  113  A    between atoms: _275  and  _277
REMARK  114  A    between atoms: _277  and  _278
REMARK  115  A    between atoms: _277  and  _280
REMARK  116  A    between atoms: _280  and  _281
REMARK  117  A    between atoms: _283  and  _285
REMARK  118  A    between atoms: _285  and  _286
REMARK  119  A    between atoms: _288  and  _290
REMARK  120  A    between atoms: _290  and  _291
REMARK  121  A    between atoms: _290  and  _293
REMARK  122  A    between atoms: _293  and  _294
REMARK  123  A    between atoms: _299  and  _301
REMARK  124  A    between atoms: _301  and  _302
REMARK  125  A    between atoms: _304  and  _306
REMARK  126  A    between atoms: _306  and  _307
REMARK  127  A    between atoms: _306  and  _309
REMARK  128  A    between atoms: _309  and  _310
REMARK  129  A    between atoms: _315  and  _316
REMARK  130  A    between atoms: _318  and  _320
REMARK  131  A    between atoms: _320  and  _321
REMARK  132  A    between atoms: _320  and  _323
REMARK  133  A    between atoms: _323  and  _324
REMARK  134  A    between atoms: _330  and  _332
REMARK  135  A    between atoms: _332  and  _333
REMARK  136  A    between atoms: _332  and  _335
REMARK  137  A    between atoms: _335  and  _336
REMARK  138  A    between atoms: _339  and  _341
REMARK  139  A    between atoms: _341  and  _342
REMARK  140  A    between atoms: _341  and  _344
REMARK  141  A    between atoms: _344  and  _345
REMARK  142  A    between atoms: _345  and  _346
REMARK  143  A    between atoms: _349  and  _351
REMARK  144  A    between atoms: _351  and  _352
REMARK  145  A    between atoms: _351  and  _354
REMARK  146  A    between atoms: _354  and  _355
REMARK  147  A    between atoms: _358  and  _360
REMARK  148  A    between atoms: _360  and  _361
REMARK  149  A    between atoms: _360  and  _363
REMARK  150  A    between atoms: _363  and  _364
REMARK  151  A    between atoms: _367  and  _369
REMARK  152  A    between atoms: _369  and  _370
REMARK  153  A    between atoms: _372  and  _374
REMARK  154  A    between atoms: _374  and  _375
REMARK  155  A    between atoms: _374  and  _377
REMARK  156  A    between atoms: _380  and  _382
REMARK  157  A    between atoms: _382  and  _383
REMARK  158  A    between atoms: _382  and  _385
REMARK  159  A    between atoms: _385  and  _386
REMARK  160  A    between atoms: _388  and  _390
REMARK  161  A    between atoms: _390  and  _391
REMARK  162  A    between atoms: _390  and  _393
REMARK  163  A    between atoms: _393  and  _394
REMARK  164  A    between atoms: _394  and  _395
REMARK  165  A    between atoms: _397  and  _399
REMARK  166  A    between atoms: _399  and  _400
REMARK  167  A    between atoms: _399  and  _402
REMARK  168  A    between atoms: _402  and  _403
REMARK  169  A    between atoms: _408  and  _409
REMARK  170  A    between atoms: _411  and  _413
REMARK  171  A    between atoms: _413  and  _414
REMARK  172  A    between atoms: _413  and  _416
REMARK  173  A    between atoms: _416  and  _417
REMARK  174  A    between atoms: _420  and  _422
REMARK  175  A    between atoms: _422  and  _423
REMARK  176  A    between atoms: _422  and  _425
REMARK  177  A    between atoms: _425  and  _426
REMARK  178  A    between atoms: _428  and  _430
REMARK  179  A    between atoms: _430  and  _431
REMARK  180  A    between atoms: _430  and  _433
REMARK  181  A    between atoms: _433  and  _434
REMARK  182  A    between atoms: _437  and  _439
REMARK  183  A    between atoms: _439  and  _440
REMARK  184  A    between atoms: _439  and  _442
REMARK  185  A    between atoms: _442  and  _443
REMARK  186  A    between atoms: _448  and  _449
REMARK  187  A    between atoms: _451  and  _453
REMARK  188  A    between atoms: _453  and  _454
REMARK  189  A    between atoms: _453  and  _456
REMARK  190  A    between atoms: _456  and  _457
REMARK  191  A    between atoms: _459  and  _461
REMARK  192  A    between atoms: _461  and  _462
REMARK  193  A    between atoms: _461  and  _464
REMARK  194  A    between atoms: _464  and  _465
REMARK  195  A    between atoms: _471  and  _473
REMARK  196  A    between atoms: _473  and  _474
REMARK  197  A    between atoms: _473  and  _476
REMARK  198  A    between atoms: _476  and  _477
REMARK  199  A    between atoms: _477  and  _478
REMARK  200  A    between atoms: _478  and  _479
REMARK  201  A    between atoms: _488  and  _490
REMARK  202  A    between atoms: _490  and  _491
REMARK  203  A    between atoms: _490  and  _493
REMARK  204  A    between atoms: _496  and  _498
REMARK  205  A    between atoms: _498  and  _499
REMARK  206  A    between atoms: _501  and  _503
REMARK  207  A    between atoms: _503  and  _504
REMARK  208  A    between atoms: _503  and  _506
REMARK  209  A    between atoms: _506  and  _507
REMARK  210  A    between atoms: _510  and  _512
REMARK  211  A    between atoms: _512  and  _513
REMARK  212  A    between atoms: _512  and  _515
REMARK  213  A    between atoms: _515  and  _516
REMARK  214  A    between atoms: _516  and  _517
REMARK  215  A    between atoms: _519  and  _521
REMARK  216  A    between atoms: _521  and  _522
REMARK  217  A    between atoms: _521  and  _524
REMARK  218  A    between atoms: _524  and  _525
REMARK  219  A    between atoms: _531  and  _533
REMARK  220  A    between atoms: _533  and  _534
REMARK  221  A    between atoms: _533  and  _536
REMARK  222  A    between atoms: _536  and  _537
REMARK  223  A    between atoms: _542  and  _544
REMARK  224  A    between atoms: _544  and  _545
REMARK  225  A    between atoms: _544  and  _547
REMARK  226  A    between atoms: _547  and  _548
REMARK  227  A    between atoms: _558  and  _560
REMARK  228  A    between atoms: _560  and  _561
REMARK  229  A    between atoms: _560  and  _563
REMARK  230  A    between atoms: _566  and  _568
REMARK  231  A    between atoms: _568  and  _569
REMARK  232  A    between atoms: _568  and  _571
REMARK  233  A    between atoms: _571  and  _572
REMARK  234  A    between atoms: _575  and  _577
REMARK  235  A    between atoms: _577  and  _578
REMARK  236  A    between atoms: _577  and  _580
REMARK  237  A    between atoms: _580  and  _581
REMARK  238  A    between atoms: _581  and  _582
REMARK  239  A    between atoms: _584  and  _586
REMARK  240  A    between atoms: _586  and  _587
REMARK  241  A    between atoms: _586  and  _589
REMARK  242  A    between atoms: _589  and  _590
REMARK  243  A    between atoms: _593  and  _595
REMARK  244  A    between atoms: _595  and  _596
REMARK  245  A    between atoms: _595  and  _598
REMARK  246  A    between atoms: _598  and  _599
REMARK  247  A    between atoms: _602  and  _604
REMARK  248  A    between atoms: _604  and  _605
REMARK  249  A    between atoms: _607  and  _609
REMARK  250  A    between atoms: _609  and  _610
REMARK  251  A    between atoms: _609  and  _612
REMARK  252  A    between atoms: _612  and  _613
REMARK  253  A    between atoms: _615  and  _617
REMARK  254  A    between atoms: _617  and  _618
REMARK  255  A    between atoms: _617  and  _620
REMARK  256  A    between atoms: _620  and  _621
REMARK  257  A    between atoms: _631  and  _633
REMARK  258  A    between atoms: _633  and  _634
REMARK  259  A    between atoms: _633  and  _636
REMARK  260  A    between atoms: _636  and  _637
REMARK  261  A    between atoms: _639  and  _641
REMARK  262  A    between atoms: _641  and  _642
REMARK  263  A    between atoms: _641  and  _644
REMARK  264  A    between atoms: _644  and  _645
REMARK  265  A    between atoms: _648  and  _650
REMARK  266  A    between atoms: _650  and  _651
REMARK  267  A    between atoms: _654  and  _656
REMARK  268  A    between atoms: _656  and  _657
REMARK  269  A    between atoms: _656  and  _659
REMARK  270  A    between atoms: _659  and  _660
REMARK  271  A    between atoms: _662  and  _664
REMARK  272  A    between atoms: _664  and  _665
REMARK  273  A    between atoms: _664  and  _667
REMARK  274  A    between atoms: _667  and  _668
REMARK  275  A    between atoms: _668  and  _669
REMARK  276  A    between atoms: _673  and  _674
REMARK  277  A    between atoms: _679  and  _681
REMARK  278  A    between atoms: _681  and  _682
REMARK  279  A    between atoms: _681  and  _684
REMARK  280  A    between atoms: _684  and  _685
REMARK  281  A    between atoms: _687  and  _689
REMARK  282  A    between atoms: _689  and  _690
REMARK  283  A    between atoms: _689  and  _692
REMARK  284  A    between atoms: _692  and  _693
REMARK  285  A    between atoms: _693  and  _694
REMARK  286  A    between atoms: _699  and  _701
REMARK  287  A    between atoms: _701  and  _702
REMARK  288  A    between atoms: _701  and  _704
REMARK  289  A    between atoms: _704  and  _705
REMARK  290  A    between atoms: _705  and  _706
REMARK  291  A    between atoms: _711  and  _713
REMARK  292  A    between atoms: _713  and  _714
REMARK  293  A    between atoms: _713  and  _716
REMARK  294  A    between atoms: _716  and  _717
REMARK  295  A    between atoms: _720  and  _722
REMARK  296  A    between atoms: _722  and  _723
REMARK  297  A    between atoms: _722  and  _725
REMARK  298  A    between atoms: _725  and  _726
REMARK  299  A    between atoms: _729  and  _731
REMARK  300  A    between atoms: _731  and  _732
REMARK  301  A    between atoms: _731  and  _734
REMARK  302  A    between atoms: _734  and  _735
REMARK  303  A    between atoms: _741  and  _743
REMARK  304  A    between atoms: _743  and  _744
REMARK  305  A    between atoms: _743  and  _746
REMARK  306  A    between atoms: _746  and  _747
REMARK  307  A    between atoms: _752  and  _753
REMARK  308  A    between atoms: _755  and  _757
REMARK  309  A    between atoms: _757  and  _758
REMARK  310  A    between atoms: _757  and  _760
REMARK  311  A    between atoms: _760  and  _761
REMARK  312  A    between atoms: _767  and  _769
REMARK  313  A    between atoms: _769  and  _770
REMARK  314  A    between atoms: _769  and  _772
REMARK  315  A    between atoms: _772  and  _773
REMARK  316  A    between atoms: _778  and  _780
REMARK  317  A    between atoms: _780  and  _781
REMARK  318  A    between atoms: _780  and  _783
REMARK  319  A    between atoms: _783  and  _784
REMARK  320  A    between atoms: _784  and  _785
REMARK                            x       y       z     vdW  Elec       q    Type
REMARK                         _______ _______ _______ _____ _____    ______ ____
ROOT
ATOM      1  O   HOH     1      -5.486  51.487  31.677  0.00  0.00    +0.000 OA
ENDROOT
TORSDOF 0
REMARK  Name = ../refined-set-2016/3drf/3drf_pocket.pdb
REMARK  320 active torsions:
REMARK  status: ('A' for Active; 'I' for Inactive)
REMARK    1  A    between atoms: _1  and  _3
REMARK    2  A    between atoms: _3  and  _4
REMARK    3  A    between atoms: _3  and  _6
REMARK    4  A    between atoms: _6  and  _7
REMARK    5  A    between atoms: _12  and  _13
REMARK    6  A    between atoms: _15  and  _17
REMARK    7  A    between atoms: _17  and  _18
REMARK    8  A    between atoms: _17  and  _20
REMARK    9  A    between atoms: _20  and  _21
REMARK   10  A    between atoms: _21  and  _22
REMARK   11  A    between atoms: _27  and  _29
REMARK   12  A    between atoms: _29  and  _30
REMARK   13  A    between atoms: _29  and  _32
REMARK   14  A    between atoms: _32  and  _33
REMARK   15  A    between atoms: _35  and  _37
REMARK   16  A    between atoms: _37  and  _38
REMARK   17  A    between atoms: _37  and  _40
REMARK   18  A    between atoms: _40  and  _41
REMARK   19  A    between atoms: _44  and  _46
REMARK   20  A    between atoms: _46  and  _47
REMARK   21  A    between atoms: _46  and  _49
REMARK   22  A    between atoms: _49  and  _50
REMARK   23  A    between atoms: _52  and  _54
REMARK   24  A    between atoms: _54  and  _55
REMARK   25  A    between atoms: _54  and  _57
REMARK   26  A    between atoms: _57  and  _58
REMARK   27  A    between atoms: _60  and  _62
REMARK   28  A    between atoms: _62  and  _63
REMARK   29  A    between atoms: _65  and  _67
REMARK   30  A    between atoms: _67  and  _68
REMARK   31  A    between atoms: _67  and  _70
REMARK   32  A    between atoms: _70  and  _71
REMARK   33  A    between atoms: _73  and  _75
REMARK   34  A    between atoms: _75  and  _76
REMARK   35  A    between atoms: _75  and  _78
REMARK   36  A    between atoms: _78  and  _79
REMARK   37  A    between atoms: _84  and  _86
REMARK   38  A    between atoms: _86  and  _87
REMARK   39  A    between atoms: _86  and  _89
REMARK   40  A    between atoms: _89  and  _90
REMARK   41  A    between atoms: _93  and  _95
REMARK   42  A    between atoms: _95  and  _96
REMARK   43  A    between atoms: _99  and  _101
REMARK   44  A    between atoms: _101  and  _102
REMARK   45  A    between atoms: _101  and  _104
REMARK   46  A    between atoms: _104  and  _105
REMARK   47  A    between atoms: _108  and  _110
REMARK   48  A    between atoms: _110  and  _111
REMARK   49  A    between atoms: _110  and  _113
REMARK   50  A    between atoms: _113  and  _114
REMARK   51  A    between atoms: _120  and  _122
REMARK   52  A    between atoms: _122  and  _123
REMARK   53  A    between atoms: _126  and  _128
REMARK   54  A    between atoms: _128  and  _129
REMARK   55  A    between atoms: _128  and  _131
REMARK   56  A    between atoms: _131  and  _132
REMARK   57  A    between atoms: _135  and  _137
REMARK   58  A    between atoms: _137  and  _138
REMARK   59  A    between atoms: _140  and  _142
REMARK   60  A    between atoms: _142  and  _143
REMARK   61  A    between atoms: _142  and  _145
REMARK   62  A    between atoms: _145  and  _146
REMARK   63  A    between atoms: _146  and  _147
REMARK   64  A    between atoms: _152  and  _154
REMARK   65  A    between atoms: _154  and  _155
REMARK   66  A    between atoms: _157  and  _159
REMARK   67  A    between atoms: _159  and  _160
REMARK   68  A    between atoms: _159  and  _162
REMARK   69  A    between atoms: _162  and  _163
REMARK   70  A    between atoms: _166  and  _168
REMARK   71  A    between atoms: _168  and  _169
REMARK   72  A    between atoms: _168  and  _171
REMARK   73  A    between atoms: _171  and  _172
REMARK   74  A    between atoms: _178  and  _180
REMARK   75  A    between atoms: _180  and  _181
REMARK   76  A    between atoms: _180  and  _183
REMARK   77  A    between atoms: _183  and  _184
REMARK   78  A    between atoms: _187  and  _189
REMARK   79  A    between atoms: _189  and  _190
REMARK   80  A    between atoms: _189  and  _192
REMARK   81  A    between atoms: _192  and  _193
REMARK   82  A    between atoms: _199  and  _201
REMARK   83  A    between atoms: _201  and  _202
REMARK   84  A    between atoms: _201  and  _204
REMARK   85  A    between atoms: _204  and  _205
REMARK   86  A    between atoms: _211  and  _213
REMARK   87  A    between atoms: _213  and  _214
REMARK   88  A    between atoms: _213  and  _216
REMARK   89  A    between atoms: _216  and  _217
REMARK   90  A    between atoms: _220  and  _222
REMARK   91  A    between atoms: _222  and  _223
REMARK   92  A    between atoms: _222  and  _225
REMARK   93  A    between atoms: _225  and  _226
REMARK   94  A    between atoms: _229  and  _231
REMARK   95  A    between atoms: _231  and  _232
REMARK   96  A    between atoms: _231  and  _234
REMARK   97  A    between atoms: _234  and  _235
REMARK   98  A    between atoms: _235  and  _236
REMARK   99  A    between atoms: _236  and  _237
REMARK  100  A    between atoms: _246  and  _248
REMARK  101  A    between atoms: _248  and  _249
REMARK  102  A    between atoms: _248  and  _251
REMARK  103  A    between atoms: _251  and  _252
REMARK  104  A    between atoms: _255  and  _257
REMARK  105  A    between atoms: _257  and  _258
REMARK  106  A    between atoms: _257  and  _260
REMARK  107  A    between atoms: _260  and  _261
REMARK  108  A    between atoms: _263  and  _265
REMARK  109  A    between atoms: _265  and  _266
REMARK  110  A    between atoms: _265  and  _268
REMARK  111  A    between atoms: _268  and  _269
REMARK  112  A    between atoms: _269  and  _270
REMARK  113  A    between atoms: _275  and  _277
REMARK  114  A    between atoms: _277  and  _278
REMARK  115  A    between atoms: _277  and  _280
REMARK  116  A    between atoms: _280  and  _281
REMARK  117  A    between atoms: _283  and  _285
REMARK  118  A    between atoms: _285  and  _286
REMARK  119  A    between atoms: _288  and  _290
REMARK  120  A    between atoms: _290  and  _291
REMARK  121  A    between atoms: _290  and  _293
REMARK  122  A    between atoms: _293  and  _294
REMARK  123  A    between atoms: _299  and  _301
REMARK  124  A    between atoms: _301  and  _302
REMARK  125  A    between atoms: _304  and  _306
REMARK  126  A    between atoms: _306  and  _307
REMARK  127  A    between atoms: _306  and  _309
REMARK  128  A    between atoms: _309  and  _310
REMARK  129  A    between atoms: _315  and  _316
REMARK  130  A    between atoms: _318  and  _320
REMARK  131  A    between atoms: _320  and  _321
REMARK  132  A    between atoms: _320  and  _323
REMARK  133  A    between atoms: _323  and  _324
REMARK  134  A    between atoms: _330  and  _332
REMARK  135  A    between atoms: _332  and  _333
REMARK  136  A    between atoms: _332  and  _335
REMARK  137  A    between atoms: _335  and  _336
REMARK  138  A    between atoms: _339  and  _341
REMARK  139  A    between atoms: _341  and  _342
REMARK  140  A    between atoms: _341  and  _344
REMARK  141  A    between atoms: _344  and  _345
REMARK  142  A    between atoms: _345  and  _346
REMARK  143  A    between atoms: _349  and  _351
REMARK  144  A    between atoms: _351  and  _352
REMARK  145  A    between atoms: _351  and  _354
REMARK  146  A    between atoms: _354  and  _355
REMARK  147  A    between atoms: _358  and  _360
REMARK  148  A    between atoms: _360  and  _361
REMARK  149  A    between atoms: _360  and  _363
REMARK  150  A    between atoms: _363  and  _364
REMARK  151  A    between atoms: _367  and  _369
REMARK  152  A    between atoms: _369  and  _370
REMARK  153  A    between atoms: _372  and  _374
REMARK  154  A    between atoms: _374  and  _375
REMARK  155  A    between atoms: _374  and  _377
REMARK  156  A    between atoms: _380  and  _382
REMARK  157  A    between atoms: _382  and  _383
REMARK  158  A    between atoms: _382  and  _385
REMARK  159  A    between atoms: _385  and  _386
REMARK  160  A    between atoms: _388  and  _390
REMARK  161  A    between atoms: _390  and  _391
REMARK  162  A    between atoms: _390  and  _393
REMARK  163  A    between atoms: _393  and  _394
REMARK  164  A    between atoms: _394  and  _395
REMARK  165  A    between atoms: _397  and  _399
REMARK  166  A    between atoms: _399  and  _400
REMARK  167  A    between atoms: _399  and  _402
REMARK  168  A    between atoms: _402  and  _403
REMARK  169  A    between atoms: _408  and  _409
REMARK  170  A    between atoms: _411  and  _413
REMARK  171  A    between atoms: _413  and  _414
REMARK  172  A    between atoms: _413  and  _416
REMARK  173  A    between atoms: _416  and  _417
REMARK  174  A    between atoms: _420  and  _422
REMARK  175  A    between atoms: _422  and  _423
REMARK  176  A    between atoms: _422  and  _425
REMARK  177  A    between atoms: _425  and  _426
REMARK  178  A    between atoms: _428  and  _430
REMARK  179  A    between atoms: _430  and  _431
REMARK  180  A    between atoms: _430  and  _433
REMARK  181  A    between atoms: _433  and  _434
REMARK  182  A    between atoms: _437  and  _439
REMARK  183  A    between atoms: _439  and  _440
REMARK  184  A    between atoms: _439  and  _442
REMARK  185  A    between atoms: _442  and  _443
REMARK  186  A    between atoms: _448  and  _449
REMARK  187  A    between atoms: _451  and  _453
REMARK  188  A    between atoms: _453  and  _454
REMARK  189  A    between atoms: _453  and  _456
REMARK  190  A    between atoms: _456  and  _457
REMARK  191  A    between atoms: _459  and  _461
REMARK  192  A    between atoms: _461  and  _462
REMARK  193  A    between atoms: _461  and  _464
REMARK  194  A    between atoms: _464  and  _465
REMARK  195  A    between atoms: _471  and  _473
REMARK  196  A    between atoms: _473  and  _474
REMARK  197  A    between atoms: _473  and  _476
REMARK  198  A    between atoms: _476  and  _477
REMARK  199  A    between atoms: _477  and  _478
REMARK  200  A    between atoms: _478  and  _479
REMARK  201  A    between atoms: _488  and  _490
REMARK  202  A    between atoms: _490  and  _491
REMARK  203  A    between atoms: _490  and  _493
REMARK  204  A    between atoms: _496  and  _498
REMARK  205  A    between atoms: _498  and  _499
REMARK  206  A    between atoms: _501  and  _503
REMARK  207  A    between atoms: _503  and  _504
REMARK  208  A    between atoms: _503  and  _506
REMARK  209  A    between atoms: _506  and  _507
REMARK  210  A    between atoms: _510  and  _512
REMARK  211  A    between atoms: _512  and  _513
REMARK  212  A    between atoms: _512  and  _515
REMARK  213  A    between atoms: _515  and  _516
REMARK  214  A    between atoms: _516  and  _517
REMARK  215  A    between atoms: _519  and  _521
REMARK  216  A    between atoms: _521  and  _522
REMARK  217  A    between atoms: _521  and  _524
REMARK  218  A    between atoms: _524  and  _525
REMARK  219  A    between atoms: _531  and  _533
REMARK  220  A    between atoms: _533  and  _534
REMARK  221  A    between atoms: _533  and  _536
REMARK  222  A    between atoms: _536  and  _537
REMARK  223  A    between atoms: _542  and  _544
REMARK  224  A    between atoms: _544  and  _545
REMARK  225  A    between atoms: _544  and  _547
REMARK  226  A    between atoms: _547  and  _548
REMARK  227  A    between atoms: _558  and  _560
REMARK  228  A    between atoms: _560  and  _561
REMARK  229  A    between atoms: _560  and  _563
REMARK  230  A    between atoms: _566  and  _568
REMARK  231  A    between atoms: _568  and  _569
REMARK  232  A    between atoms: _568  and  _571
REMARK  233  A    between atoms: _571  and  _572
REMARK  234  A    between atoms: _575  and  _577
REMARK  235  A    between atoms: _577  and  _578
REMARK  236  A    between atoms: _577  and  _580
REMARK  237  A    between atoms: _580  and  _581
REMARK  238  A    between atoms: _581  and  _582
REMARK  239  A    between atoms: _584  and  _586
REMARK  240  A    between atoms: _586  and  _587
REMARK  241  A    between atoms: _586  and  _589
REMARK  242  A    between atoms: _589  and  _590
REMARK  243  A    between atoms: _593  and  _595
REMARK  244  A    between atoms: _595  and  _596
REMARK  245  A    between atoms: _595  and  _598
REMARK  246  A    between atoms: _598  and  _599
REMARK  247  A    between atoms: _602  and  _604
REMARK  248  A    between atoms: _604  and  _605
REMARK  249  A    between atoms: _607  and  _609
REMARK  250  A    between atoms: _609  and  _610
REMARK  251  A    between atoms: _609  and  _612
REMARK  252  A    between atoms: _612  and  _613
REMARK  253  A    between atoms: _615  and  _617
REMARK  254  A    between atoms: _617  and  _618
REMARK  255  A    between atoms: _617  and  _620
REMARK  256  A    between atoms: _620  and  _621
REMARK  257  A    between atoms: _631  and  _633
REMARK  258  A    between atoms: _633  and  _634
REMARK  259  A    between atoms: _633  and  _636
REMARK  260  A    between atoms: _636  and  _637
REMARK  261  A    between atoms: _639  and  _641
REMARK  262  A    between atoms: _641  and  _642
REMARK  263  A    between atoms: _641  and  _644
REMARK  264  A    between atoms: _644  and  _645
REMARK  265  A    between atoms: _648  and  _650
REMARK  266  A    between atoms: _650  and  _651
REMARK  267  A    between atoms: _654  and  _656
REMARK  268  A    between atoms: _656  and  _657
REMARK  269  A    between atoms: _656  and  _659
REMARK  270  A    between atoms: _659  and  _660
REMARK  271  A    between atoms: _662  and  _664
REMARK  272  A    between atoms: _664  and  _665
REMARK  273  A    between atoms: _664  and  _667
REMARK  274  A    between atoms: _667  and  _668
REMARK  275  A    between atoms: _668  and  _669
REMARK  276  A    between atoms: _673  and  _674
REMARK  277  A    between atoms: _679  and  _681
REMARK  278  A    between atoms: _681  and  _682
REMARK  279  A    between atoms: _681  and  _684
REMARK  280  A    between atoms: _684  and  _685
REMARK  281  A    between atoms: _687  and  _689
REMARK  282  A    between atoms: _689  and  _690
REMARK  283  A    between atoms: _689  and  _692
REMARK  284  A    between atoms: _692  and  _693
REMARK  285  A    between atoms: _693  and  _694
REMARK  286  A    between atoms: _699  and  _701
REMARK  287  A    between atoms: _701  and  _702
REMARK  288  A    between atoms: _701  and  _704
REMARK  289  A    between atoms: _704  and  _705
REMARK  290  A    between atoms: _705  and  _706
REMARK  291  A    between atoms: _711  and  _713
REMARK  292  A    between atoms: _713  and  _714
REMARK  293  A    between atoms: _713  and  _716
REMARK  294  A    between atoms: _716  and  _717
REMARK  295  A    between atoms: _720  and  _722
REMARK  296  A    between atoms: _722  and  _723
REMARK  297  A    between atoms: _722  and  _725
REMARK  298  A    between atoms: _725  and  _726
REMARK  299  A    between atoms: _729  and  _731
REMARK  300  A    between atoms: _731  and  _732
REMARK  301  A    between atoms: _731  and  _734
REMARK  302  A    between atoms: _734  and  _735
REMARK  303  A    between atoms: _741  and  _743
REMARK  304  A    between atoms: _743  and  _744
REMARK  305  A    between atoms: _743  and  _746
REMARK  306  A    between atoms: _746  and  _747
REMARK  307  A    between atoms: _752  and  _753
REMARK  308  A    between atoms: _755  and  _757
REMARK  309  A    between atoms: _757  and  _758
REMARK  310  A    between atoms: _757  and  _760
REMARK  311  A    between atoms: _760  and  _761
REMARK  312  A    between atoms: _767  and  _769
REMARK  313  A    between atoms: _769  and  _770
REMARK  314  A    between atoms: _769  and  _772
REMARK  315  A    between atoms: _772  and  _773
REMARK  316  A    between atoms: _778  and  _780
REMARK  317  A    between atoms: _780  and  _781
REMARK  318  A    between atoms: _780  and  _783
REMARK  319  A    between atoms: _783  and  _784
REMARK  320  A    between atoms: _784  and  _785
REMARK                            x       y       z     vdW  Elec       q    Type
REMARK                         _______ _______ _______ _____ _____    ______ ____
ROOT
ATOM      1  O   HOH     1      -7.053  50.737  29.812  0.00  0.00    +0.000 OA
ENDROOT
TORSDOF 0
REMARK  Name = ../refined-set-2016/3drf/3drf_pocket.pdb
REMARK  320 active torsions:
REMARK  status: ('A' for Active; 'I' for Inactive)
REMARK    1  A    between atoms: _1  and  _3
REMARK    2  A    between atoms: _3  and  _4
REMARK    3  A    between atoms: _3  and  _6
REMARK    4  A    between atoms: _6  and  _7
REMARK    5  A    between atoms: _12  and  _13
REMARK    6  A    between atoms: _15  and  _17
REMARK    7  A    between atoms: _17  and  _18
REMARK    8  A    between atoms: _17  and  _20
REMARK    9  A    between atoms: _20  and  _21
REMARK   10  A    between atoms: _21  and  _22
REMARK   11  A    between atoms: _27  and  _29
REMARK   12  A    between atoms: _29  and  _30
REMARK   13  A    between atoms: _29  and  _32
REMARK   14  A    between atoms: _32  and  _33
REMARK   15  A    between atoms: _35  and  _37
REMARK   16  A    between atoms: _37  and  _38
REMARK   17  A    between atoms: _37  and  _40
REMARK   18  A    between atoms: _40  and  _41
REMARK   19  A    between atoms: _44  and  _46
REMARK   20  A    between atoms: _46  and  _47
REMARK   21  A    between atoms: _46  and  _49
REMARK   22  A    between atoms: _49  and  _50
REMARK   23  A    between atoms: _52  and  _54
REMARK   24  A    between atoms: _54  and  _55
REMARK   25  A    between atoms: _54  and  _57
REMARK   26  A    between atoms: _57  and  _58
REMARK   27  A    between atoms: _60  and  _62
REMARK   28  A    between atoms: _62  and  _63
REMARK   29  A    between atoms: _65  and  _67
REMARK   30  A    between atoms: _67  and  _68
REMARK   31  A    between atoms: _67  and  _70
REMARK   32  A    between atoms: _70  and  _71
REMARK   33  A    between atoms: _73  and  _75
REMARK   34  A    between atoms: _75  and  _76
REMARK   35  A    between atoms: _75  and  _78
REMARK   36  A    between atoms: _78  and  _79
REMARK   37  A    between atoms: _84  and  _86
REMARK   38  A    between atoms: _86  and  _87
REMARK   39  A    between atoms: _86  and  _89
REMARK   40  A    between atoms: _89  and  _90
REMARK   41  A    between atoms: _93  and  _95
REMARK   42  A    between atoms: _95  and  _96
REMARK   43  A    between atoms: _99  and  _101
REMARK   44  A    between atoms: _101  and  _102
REMARK   45  A    between atoms: _101  and  _104
REMARK   46  A    between atoms: _104  and  _105
REMARK   47  A    between atoms: _108  and  _110
REMARK   48  A    between atoms: _110  and  _111
REMARK   49  A    between atoms: _110  and  _113
REMARK   50  A    between atoms: _113  and  _114
REMARK   51  A    between atoms: _120  and  _122
REMARK   52  A    between atoms: _122  and  _123
REMARK   53  A    between atoms: _126  and  _128
REMARK   54  A    between atoms: _128  and  _129
REMARK   55  A    between atoms: _128  and  _131
REMARK   56  A    between atoms: _131  and  _132
REMARK   57  A    between atoms: _135  and  _137
REMARK   58  A    between atoms: _137  and  _138
REMARK   59  A    between atoms: _140  and  _142
REMARK   60  A    between atoms: _142  and  _143
REMARK   61  A    between atoms: _142  and  _145
REMARK   62  A    between atoms: _145  and  _146
REMARK   63  A    between atoms: _146  and  _147
REMARK   64  A    between atoms: _152  and  _154
REMARK   65  A    between atoms: _154  and  _155
REMARK   66  A    between atoms: _157  and  _159
REMARK   67  A    between atoms: _159  and  _160
REMARK   68  A    between atoms: _159  and  _162
REMARK   69  A    between atoms: _162  and  _163
REMARK   70  A    between atoms: _166  and  _168
REMARK   71  A    between atoms: _168  and  _169
REMARK   72  A    between atoms: _168  and  _171
REMARK   73  A    between atoms: _171  and  _172
REMARK   74  A    between atoms: _178  and  _180
REMARK   75  A    between atoms: _180  and  _181
REMARK   76  A    between atoms: _180  and  _183
REMARK   77  A    between atoms: _183  and  _184
REMARK   78  A    between atoms: _187  and  _189
REMARK   79  A    between atoms: _189  and  _190
REMARK   80  A    between atoms: _189  and  _192
REMARK   81  A    between atoms: _192  and  _193
REMARK   82  A    between atoms: _199  and  _201
REMARK   83  A    between atoms: _201  and  _202
REMARK   84  A    between atoms: _201  and  _204
REMARK   85  A    between atoms: _204  and  _205
REMARK   86  A    between atoms: _211  and  _213
REMARK   87  A    between atoms: _213  and  _214
REMARK   88  A    between atoms: _213  and  _216
REMARK   89  A    between atoms: _216  and  _217
REMARK   90  A    between atoms: _220  and  _222
REMARK   91  A    between atoms: _222  and  _223
REMARK   92  A    between atoms: _222  and  _225
REMARK   93  A    between atoms: _225  and  _226
REMARK   94  A    between atoms: _229  and  _231
REMARK   95  A    between atoms: _231  and  _232
REMARK   96  A    between atoms: _231  and  _234
REMARK   97  A    between atoms: _234  and  _235
REMARK   98  A    between atoms: _235  and  _236
REMARK   99  A    between atoms: _236  and  _237
REMARK  100  A    between atoms: _246  and  _248
REMARK  101  A    between atoms: _248  and  _249
REMARK  102  A    between atoms: _248  and  _251
REMARK  103  A    between atoms: _251  and  _252
REMARK  104  A    between atoms: _255  and  _257
REMARK  105  A    between atoms: _257  and  _258
REMARK  106  A    between atoms: _257  and  _260
REMARK  107  A    between atoms: _260  and  _261
REMARK  108  A    between atoms: _263  and  _265
REMARK  109  A    between atoms: _265  and  _266
REMARK  110  A    between atoms: _265  and  _268
REMARK  111  A    between atoms: _268  and  _269
REMARK  112  A    between atoms: _269  and  _270
REMARK  113  A    between atoms: _275  and  _277
REMARK  114  A    between atoms: _277  and  _278
REMARK  115  A    between atoms: _277  and  _280
REMARK  116  A    between atoms: _280  and  _281
REMARK  117  A    between atoms: _283  and  _285
REMARK  118  A    between atoms: _285  and  _286
REMARK  119  A    between atoms: _288  and  _290
REMARK  120  A    between atoms: _290  and  _291
REMARK  121  A    between atoms: _290  and  _293
REMARK  122  A    between atoms: _293  and  _294
REMARK  123  A    between atoms: _299  and  _301
REMARK  124  A    between atoms: _301  and  _302
REMARK  125  A    between atoms: _304  and  _306
REMARK  126  A    between atoms: _306  and  _307
REMARK  127  A    between atoms: _306  and  _309
REMARK  128  A    between atoms: _309  and  _310
REMARK  129  A    between atoms: _315  and  _316
REMARK  130  A    between atoms: _318  and  _320
REMARK  131  A    between atoms: _320  and  _321
REMARK  132  A    between atoms: _320  and  _323
REMARK  133  A    between atoms: _323  and  _324
REMARK  134  A    between atoms: _330  and  _332
REMARK  135  A    between atoms: _332  and  _333
REMARK  136  A    between atoms: _332  and  _335
REMARK  137  A    between atoms: _335  and  _336
REMARK  138  A    between atoms: _339  and  _341
REMARK  139  A    between atoms: _341  and  _342
REMARK  140  A    between atoms: _341  and  _344
REMARK  141  A    between atoms: _344  and  _345
REMARK  142  A    between atoms: _345  and  _346
REMARK  143  A    between atoms: _349  and  _351
REMARK  144  A    between atoms: _351  and  _352
REMARK  145  A    between atoms: _351  and  _354
REMARK  146  A    between atoms: _354  and  _355
REMARK  147  A    between atoms: _358  and  _360
REMARK  148  A    between atoms: _360  and  _361
REMARK  149  A    between atoms: _360  and  _363
REMARK  150  A    between atoms: _363  and  _364
REMARK  151  A    between atoms: _367  and  _369
REMARK  152  A    between atoms: _369  and  _370
REMARK  153  A    between atoms: _372  and  _374
REMARK  154  A    between atoms: _374  and  _375
REMARK  155  A    between atoms: _374  and  _377
REMARK  156  A    between atoms: _380  and  _382
REMARK  157  A    between atoms: _382  and  _383
REMARK  158  A    between atoms: _382  and  _385
REMARK  159  A    between atoms: _385  and  _386
REMARK  160  A    between atoms: _388  and  _390
REMARK  161  A    between atoms: _390  and  _391
REMARK  162  A    between atoms: _390  and  _393
REMARK  163  A    between atoms: _393  and  _394
REMARK  164  A    between atoms: _394  and  _395
REMARK  165  A    between atoms: _397  and  _399
REMARK  166  A    between atoms: _399  and  _400
REMARK  167  A    between atoms: _399  and  _402
REMARK  168  A    between atoms: _402  and  _403
REMARK  169  A    between atoms: _408  and  _409
REMARK  170  A    between atoms: _411  and  _413
REMARK  171  A    between atoms: _413  and  _414
REMARK  172  A    between atoms: _413  and  _416
REMARK  173  A    between atoms: _416  and  _417
REMARK  174  A    between atoms: _420  and  _422
REMARK  175  A    between atoms: _422  and  _423
REMARK  176  A    between atoms: _422  and  _425
REMARK  177  A    between atoms: _425  and  _426
REMARK  178  A    between atoms: _428  and  _430
REMARK  179  A    between atoms: _430  and  _431
REMARK  180  A    between atoms: _430  and  _433
REMARK  181  A    between atoms: _433  and  _434
REMARK  182  A    between atoms: _437  and  _439
REMARK  183  A    between atoms: _439  and  _440
REMARK  184  A    between atoms: _439  and  _442
REMARK  185  A    between atoms: _442  and  _443
REMARK  186  A    between atoms: _448  and  _449
REMARK  187  A    between atoms: _451  and  _453
REMARK  188  A    between atoms: _453  and  _454
REMARK  189  A    between atoms: _453  and  _456
REMARK  190  A    between atoms: _456  and  _457
REMARK  191  A    between atoms: _459  and  _461
REMARK  192  A    between atoms: _461  and  _462
REMARK  193  A    between atoms: _461  and  _464
REMARK  194  A    between atoms: _464  and  _465
REMARK  195  A    between atoms: _471  and  _473
REMARK  196  A    between atoms: _473  and  _474
REMARK  197  A    between atoms: _473  and  _476
REMARK  198  A    between atoms: _476  and  _477
REMARK  199  A    between atoms: _477  and  _478
REMARK  200  A    between atoms: _478  and  _479
REMARK  201  A    between atoms: _488  and  _490
REMARK  202  A    between atoms: _490  and  _491
REMARK  203  A    between atoms: _490  and  _493
REMARK  204  A    between atoms: _496  and  _498
REMARK  205  A    between atoms: _498  and  _499
REMARK  206  A    between atoms: _501  and  _503
REMARK  207  A    between atoms: _503  and  _504
REMARK  208  A    between atoms: _503  and  _506
REMARK  209  A    between atoms: _506  and  _507
REMARK  210  A    between atoms: _510  and  _512
REMARK  211  A    between atoms: _512  and  _513
REMARK  212  A    between atoms: _512  and  _515
REMARK  213  A    between atoms: _515  and  _516
REMARK  214  A    between atoms: _516  and  _517
REMARK  215  A    between atoms: _519  and  _521
REMARK  216  A    between atoms: _521  and  _522
REMARK  217  A    between atoms: _521  and  _524
REMARK  218  A    between atoms: _524  and  _525
REMARK  219  A    between atoms: _531  and  _533
REMARK  220  A    between atoms: _533  and  _534
REMARK  221  A    between atoms: _533  and  _536
REMARK  222  A    between atoms: _536  and  _537
REMARK  223  A    between atoms: _542  and  _544
REMARK  224  A    between atoms: _544  and  _545
REMARK  225  A    between atoms: _544  and  _547
REMARK  226  A    between atoms: _547  and  _548
REMARK  227  A    between atoms: _558  and  _560
REMARK  228  A    between atoms: _560  and  _561
REMARK  229  A    between atoms: _560  and  _563
REMARK  230  A    between atoms: _566  and  _568
REMARK  231  A    between atoms: _568  and  _569
REMARK  232  A    between atoms: _568  and  _571
REMARK  233  A    between atoms: _571  and  _572
REMARK  234  A    between atoms: _575  and  _577
REMARK  235  A    between atoms: _577  and  _578
REMARK  236  A    between atoms: _577  and  _580
REMARK  237  A    between atoms: _580  and  _581
REMARK  238  A    between atoms: _581  and  _582
REMARK  239  A    between atoms: _584  and  _586
REMARK  240  A    between atoms: _586  and  _587
REMARK  241  A    between atoms: _586  and  _589
REMARK  242  A    between atoms: _589  and  _590
REMARK  243  A    between atoms: _593  and  _595
REMARK  244  A    between atoms: _595  and  _596
REMARK  245  A    between atoms: _595  and  _598
REMARK  246  A    between atoms: _598  and  _599
REMARK  247  A    between atoms: _602  and  _604
REMARK  248  A    between atoms: _604  and  _605
REMARK  249  A    between atoms: _607  and  _609
REMARK  250  A    between atoms: _609  and  _610
REMARK  251  A    between atoms: _609  and  _612
REMARK  252  A    between atoms: _612  and  _613
REMARK  253  A    between atoms: _615  and  _617
REMARK  254  A    between atoms: _617  and  _618
REMARK  255  A    between atoms: _617  and  _620
REMARK  256  A    between atoms: _620  and  _621
REMARK  257  A    between atoms: _631  and  _633
REMARK  258  A    between atoms: _633  and  _634
REMARK  259  A    between atoms: _633  and  _636
REMARK  260  A    between atoms: _636  and  _637
REMARK  261  A    between atoms: _639  and  _641
REMARK  262  A    between atoms: _641  and  _642
REMARK  263  A    between atoms: _641  and  _644
REMARK  264  A    between atoms: _644  and  _645
REMARK  265  A    between atoms: _648  and  _650
REMARK  266  A    between atoms: _650  and  _651
REMARK  267  A    between atoms: _654  and  _656
REMARK  268  A    between atoms: _656  and  _657
REMARK  269  A    between atoms: _656  and  _659
REMARK  270  A    between atoms: _659  and  _660
REMARK  271  A    between atoms: _662  and  _664
REMARK  272  A    between atoms: _664  and  _665
REMARK  273  A    between atoms: _664  and  _667
REMARK  274  A    between atoms: _667  and  _668
REMARK  275  A    between atoms: _668  and  _669
REMARK  276  A    between atoms: _673  and  _674
REMARK  277  A    between atoms: _679  and  _681
REMARK  278  A    between atoms: _681  and  _682
REMARK  279  A    between atoms: _681  and  _684
REMARK  280  A    between atoms: _684  and  _685
REMARK  281  A    between atoms: _687  and  _689
REMARK  282  A    between atoms: _689  and  _690
REMARK  283  A    between atoms: _689  and  _692
REMARK  284  A    between atoms: _692  and  _693
REMARK  285  A    between atoms: _693  and  _694
REMARK  286  A    between atoms: _699  and  _701
REMARK  287  A    between atoms: _701  and  _702
REMARK  288  A    between atoms: _701  and  _704
REMARK  289  A    between atoms: _704  and  _705
REMARK  290  A    between atoms: _705  and  _706
REMARK  291  A    between atoms: _711  and  _713
REMARK  292  A    between atoms: _713  and  _714
REMARK  293  A    between atoms: _713  and  _716
REMARK  294  A    between atoms: _716  and  _717
REMARK  295  A    between atoms: _720  and  _722
REMARK  296  A    between atoms: _722  and  _723
REMARK  297  A    between atoms: _722  and  _725
REMARK  298  A    between atoms: _725  and  _726
REMARK  299  A    between atoms: _729  and  _731
REMARK  300  A    between atoms: _731  and  _732
REMARK  301  A    between atoms: _731  and  _734
REMARK  302  A    between atoms: _734  and  _735
REMARK  303  A    between atoms: _741  and  _743
REMARK  304  A    between atoms: _743  and  _744
REMARK  305  A    between atoms: _743  and  _746
REMARK  306  A    between atoms: _746  and  _747
REMARK  307  A    between atoms: _752  and  _753
REMARK  308  A    between atoms: _755  and  _757
REMARK  309  A    between atoms: _757  and  _758
REMARK  310  A    between atoms: _757  and  _760
REMARK  311  A    between atoms: _760  and  _761
REMARK  312  A    between atoms: _767  and  _769
REMARK  313  A    between atoms: _769  and  _770
REMARK  314  A    between atoms: _769  and  _772
REMARK  315  A    between atoms: _772  and  _773
REMARK  316  A    between atoms: _778  and  _780
REMARK  317  A    between atoms: _780  and  _781
REMARK  318  A    between atoms: _780  and  _783
REMARK  319  A    between atoms: _783  and  _784
REMARK  320  A    between atoms: _784  and  _785
REMARK                            x       y       z     vdW  Elec       q    Type
REMARK                         _______ _______ _______ _____ _____    ______ ____
ROOT
ATOM      1  O   HOH     1      -4.779  51.141  27.337  0.00  0.00    +0.000 OA
ENDROOT
TORSDOF 0
REMARK  Name = ../refined-set-2016/3drf/3drf_pocket.pdb
REMARK  320 active torsions:
REMARK  status: ('A' for Active; 'I' for Inactive)
REMARK    1  A    between atoms: _1  and  _3
REMARK    2  A    between atoms: _3  and  _4
REMARK    3  A    between atoms: _3  and  _6
REMARK    4  A    between atoms: _6  and  _7
REMARK    5  A    between atoms: _12  and  _13
REMARK    6  A    between atoms: _15  and  _17
REMARK    7  A    between atoms: _17  and  _18
REMARK    8  A    between atoms: _17  and  _20
REMARK    9  A    between atoms: _20  and  _21
REMARK   10  A    between atoms: _21  and  _22
REMARK   11  A    between atoms: _27  and  _29
REMARK   12  A    between atoms: _29  and  _30
REMARK   13  A    between atoms: _29  and  _32
REMARK   14  A    between atoms: _32  and  _33
REMARK   15  A    between atoms: _35  and  _37
REMARK   16  A    between atoms: _37  and  _38
REMARK   17  A    between atoms: _37  and  _40
REMARK   18  A    between atoms: _40  and  _41
REMARK   19  A    between atoms: _44  and  _46
REMARK   20  A    between atoms: _46  and  _47
REMARK   21  A    between atoms: _46  and  _49
REMARK   22  A    between atoms: _49  and  _50
REMARK   23  A    between atoms: _52  and  _54
REMARK   24  A    between atoms: _54  and  _55
REMARK   25  A    between atoms: _54  and  _57
REMARK   26  A    between atoms: _57  and  _58
REMARK   27  A    between atoms: _60  and  _62
REMARK   28  A    between atoms: _62  and  _63
REMARK   29  A    between atoms: _65  and  _67
REMARK   30  A    between atoms: _67  and  _68
REMARK   31  A    between atoms: _67  and  _70
REMARK   32  A    between atoms: _70  and  _71
REMARK   33  A    between atoms: _73  and  _75
REMARK   34  A    between atoms: _75  and  _76
REMARK   35  A    between atoms: _75  and  _78
REMARK   36  A    between atoms: _78  and  _79
REMARK   37  A    between atoms: _84  and  _86
REMARK   38  A    between atoms: _86  and  _87
REMARK   39  A    between atoms: _86  and  _89
REMARK   40  A    between atoms: _89  and  _90
REMARK   41  A    between atoms: _93  and  _95
REMARK   42  A    between atoms: _95  and  _96
REMARK   43  A    between atoms: _99  and  _101
REMARK   44  A    between atoms: _101  and  _102
REMARK   45  A    between atoms: _101  and  _104
REMARK   46  A    between atoms: _104  and  _105
REMARK   47  A    between atoms: _108  and  _110
REMARK   48  A    between atoms: _110  and  _111
REMARK   49  A    between atoms: _110  and  _113
REMARK   50  A    between atoms: _113  and  _114
REMARK   51  A    between atoms: _120  and  _122
REMARK   52  A    between atoms: _122  and  _123
REMARK   53  A    between atoms: _126  and  _128
REMARK   54  A    between atoms: _128  and  _129
REMARK   55  A    between atoms: _128  and  _131
REMARK   56  A    between atoms: _131  and  _132
REMARK   57  A    between atoms: _135  and  _137
REMARK   58  A    between atoms: _137  and  _138
REMARK   59  A    between atoms: _140  and  _142
REMARK   60  A    between atoms: _142  and  _143
REMARK   61  A    between atoms: _142  and  _145
REMARK   62  A    between atoms: _145  and  _146
REMARK   63  A    between atoms: _146  and  _147
REMARK   64  A    between atoms: _152  and  _154
REMARK   65  A    between atoms: _154  and  _155
REMARK   66  A    between atoms: _157  and  _159
REMARK   67  A    between atoms: _159  and  _160
REMARK   68  A    between atoms: _159  and  _162
REMARK   69  A    between atoms: _162  and  _163
REMARK   70  A    between atoms: _166  and  _168
REMARK   71  A    between atoms: _168  and  _169
REMARK   72  A    between atoms: _168  and  _171
REMARK   73  A    between atoms: _171  and  _172
REMARK   74  A    between atoms: _178  and  _180
REMARK   75  A    between atoms: _180  and  _181
REMARK   76  A    between atoms: _180  and  _183
REMARK   77  A    between atoms: _183  and  _184
REMARK   78  A    between atoms: _187  and  _189
REMARK   79  A    between atoms: _189  and  _190
REMARK   80  A    between atoms: _189  and  _192
REMARK   81  A    between atoms: _192  and  _193
REMARK   82  A    between atoms: _199  and  _201
REMARK   83  A    between atoms: _201  and  _202
REMARK   84  A    between atoms: _201  and  _204
REMARK   85  A    between atoms: _204  and  _205
REMARK   86  A    between atoms: _211  and  _213
REMARK   87  A    between atoms: _213  and  _214
REMARK   88  A    between atoms: _213  and  _216
REMARK   89  A    between atoms: _216  and  _217
REMARK   90  A    between atoms: _220  and  _222
REMARK   91  A    between atoms: _222  and  _223
REMARK   92  A    between atoms: _222  and  _225
REMARK   93  A    between atoms: _225  and  _226
REMARK   94  A    between atoms: _229  and  _231
REMARK   95  A    between atoms: _231  and  _232
REMARK   96  A    between atoms: _231  and  _234
REMARK   97  A    between atoms: _234  and  _235
REMARK   98  A    between atoms: _235  and  _236
REMARK   99  A    between atoms: _236  and  _237
REMARK  100  A    between atoms: _246  and  _248
REMARK  101  A    between atoms: _248  and  _249
REMARK  102  A    between atoms: _248  and  _251
REMARK  103  A    between atoms: _251  and  _252
REMARK  104  A    between atoms: _255  and  _257
REMARK  105  A    between atoms: _257  and  _258
REMARK  106  A    between atoms: _257  and  _260
REMARK  107  A    between atoms: _260  and  _261
REMARK  108  A    between atoms: _263  and  _265
REMARK  109  A    between atoms: _265  and  _266
REMARK  110  A    between atoms: _265  and  _268
REMARK  111  A    between atoms: _268  and  _269
REMARK  112  A    between atoms: _269  and  _270
REMARK  113  A    between atoms: _275  and  _277
REMARK  114  A    between atoms: _277  and  _278
REMARK  115  A    between atoms: _277  and  _280
REMARK  116  A    between atoms: _280  and  _281
REMARK  117  A    between atoms: _283  and  _285
REMARK  118  A    between atoms: _285  and  _286
REMARK  119  A    between atoms: _288  and  _290
REMARK  120  A    between atoms: _290  and  _291
REMARK  121  A    between atoms: _290  and  _293
REMARK  122  A    between atoms: _293  and  _294
REMARK  123  A    between atoms: _299  and  _301
REMARK  124  A    between atoms: _301  and  _302
REMARK  125  A    between atoms: _304  and  _306
REMARK  126  A    between atoms: _306  and  _307
REMARK  127  A    between atoms: _306  and  _309
REMARK  128  A    between atoms: _309  and  _310
REMARK  129  A    between atoms: _315  and  _316
REMARK  130  A    between atoms: _318  and  _320
REMARK  131  A    between atoms: _320  and  _321
REMARK  132  A    between atoms: _320  and  _323
REMARK  133  A    between atoms: _323  and  _324
REMARK  134  A    between atoms: _330  and  _332
REMARK  135  A    between atoms: _332  and  _333
REMARK  136  A    between atoms: _332  and  _335
REMARK  137  A    between atoms: _335  and  _336
REMARK  138  A    between atoms: _339  and  _341
REMARK  139  A    between atoms: _341  and  _342
REMARK  140  A    between atoms: _341  and  _344
REMARK  141  A    between atoms: _344  and  _345
REMARK  142  A    between atoms: _345  and  _346
REMARK  143  A    between atoms: _349  and  _351
REMARK  144  A    between atoms: _351  and  _352
REMARK  145  A    between atoms: _351  and  _354
REMARK  146  A    between atoms: _354  and  _355
REMARK  147  A    between atoms: _358  and  _360
REMARK  148  A    between atoms: _360  and  _361
REMARK  149  A    between atoms: _360  and  _363
REMARK  150  A    between atoms: _363  and  _364
REMARK  151  A    between atoms: _367  and  _369
REMARK  152  A    between atoms: _369  and  _370
REMARK  153  A    between atoms: _372  and  _374
REMARK  154  A    between atoms: _374  and  _375
REMARK  155  A    between atoms: _374  and  _377
REMARK  156  A    between atoms: _380  and  _382
REMARK  157  A    between atoms: _382  and  _383
REMARK  158  A    between atoms: _382  and  _385
REMARK  159  A    between atoms: _385  and  _386
REMARK  160  A    between atoms: _388  and  _390
REMARK  161  A    between atoms: _390  and  _391
REMARK  162  A    between atoms: _390  and  _393
REMARK  163  A    between atoms: _393  and  _394
REMARK  164  A    between atoms: _394  and  _395
REMARK  165  A    between atoms: _397  and  _399
REMARK  166  A    between atoms: _399  and  _400
REMARK  167  A    between atoms: _399  and  _402
REMARK  168  A    between atoms: _402  and  _403
REMARK  169  A    between atoms: _408  and  _409
REMARK  170  A    between atoms: _411  and  _413
REMARK  171  A    between atoms: _413  and  _414
REMARK  172  A    between atoms: _413  and  _416
REMARK  173  A    between atoms: _416  and  _417
REMARK  174  A    between atoms: _420  and  _422
REMARK  175  A    between atoms: _422  and  _423
REMARK  176  A    between atoms: _422  and  _425
REMARK  177  A    between atoms: _425  and  _426
REMARK  178  A    between atoms: _428  and  _430
REMARK  179  A    between atoms: _430  and  _431
REMARK  180  A    between atoms: _430  and  _433
REMARK  181  A    between atoms: _433  and  _434
REMARK  182  A    between atoms: _437  and  _439
REMARK  183  A    between atoms: _439  and  _440
REMARK  184  A    between atoms: _439  and  _442
REMARK  185  A    between atoms: _442  and  _443
REMARK  186  A    between atoms: _448  and  _449
REMARK  187  A    between atoms: _451  and  _453
REMARK  188  A    between atoms: _453  and  _454
REMARK  189  A    between atoms: _453  and  _456
REMARK  190  A    between atoms: _456  and  _457
REMARK  191  A    between atoms: _459  and  _461
REMARK  192  A    between atoms: _461  and  _462
REMARK  193  A    between atoms: _461  and  _464
REMARK  194  A    between atoms: _464  and  _465
REMARK  195  A    between atoms: _471  and  _473
REMARK  196  A    between atoms: _473  and  _474
REMARK  197  A    between atoms: _473  and  _476
REMARK  198  A    between atoms: _476  and  _477
REMARK  199  A    between atoms: _477  and  _478
REMARK  200  A    between atoms: _478  and  _479
REMARK  201  A    between atoms: _488  and  _490
REMARK  202  A    between atoms: _490  and  _491
REMARK  203  A    between atoms: _490  and  _493
REMARK  204  A    between atoms: _496  and  _498
REMARK  205  A    between atoms: _498  and  _499
REMARK  206  A    between atoms: _501  and  _503
REMARK  207  A    between atoms: _503  and  _504
REMARK  208  A    between atoms: _503  and  _506
REMARK  209  A    between atoms: _506  and  _507
REMARK  210  A    between atoms: _510  and  _512
REMARK  211  A    between atoms: _512  and  _513
REMARK  212  A    between atoms: _512  and  _515
REMARK  213  A    between atoms: _515  and  _516
REMARK  214  A    between atoms: _516  and  _517
REMARK  215  A    between atoms: _519  and  _521
REMARK  216  A    between atoms: _521  and  _522
REMARK  217  A    between atoms: _521  and  _524
REMARK  218  A    between atoms: _524  and  _525
REMARK  219  A    between atoms: _531  and  _533
REMARK  220  A    between atoms: _533  and  _534
REMARK  221  A    between atoms: _533  and  _536
REMARK  222  A    between atoms: _536  and  _537
REMARK  223  A    between atoms: _542  and  _544
REMARK  224  A    between atoms: _544  and  _545
REMARK  225  A    between atoms: _544  and  _547
REMARK  226  A    between atoms: _547  and  _548
REMARK  227  A    between atoms: _558  and  _560
REMARK  228  A    between atoms: _560  and  _561
REMARK  229  A    between atoms: _560  and  _563
REMARK  230  A    between atoms: _566  and  _568
REMARK  231  A    between atoms: _568  and  _569
REMARK  232  A    between atoms: _568  and  _571
REMARK  233  A    between atoms: _571  and  _572
REMARK  234  A    between atoms: _575  and  _577
REMARK  235  A    between atoms: _577  and  _578
REMARK  236  A    between atoms: _577  and  _580
REMARK  237  A    between atoms: _580  and  _581
REMARK  238  A    between atoms: _581  and  _582
REMARK  239  A    between atoms: _584  and  _586
REMARK  240  A    between atoms: _586  and  _587
REMARK  241  A    between atoms: _586  and  _589
REMARK  242  A    between atoms: _589  and  _590
REMARK  243  A    between atoms: _593  and  _595
REMARK  244  A    between atoms: _595  and  _596
REMARK  245  A    between atoms: _595  and  _598
REMARK  246  A    between atoms: _598  and  _599
REMARK  247  A    between atoms: _602  and  _604
REMARK  248  A    between atoms: _604  and  _605
REMARK  249  A    between atoms: _607  and  _609
REMARK  250  A    between atoms: _609  and  _610
REMARK  251  A    between atoms: _609  and  _612
REMARK  252  A    between atoms: _612  and  _613
REMARK  253  A    between atoms: _615  and  _617
REMARK  254  A    between atoms: _617  and  _618
REMARK  255  A    between atoms: _617  and  _620
REMARK  256  A    between atoms: _620  and  _621
REMARK  257  A    between atoms: _631  and  _633
REMARK  258  A    between atoms: _633  and  _634
REMARK  259  A    between atoms: _633  and  _636
REMARK  260  A    between atoms: _636  and  _637
REMARK  261  A    between atoms: _639  and  _641
REMARK  262  A    between atoms: _641  and  _642
REMARK  263  A    between atoms: _641  and  _644
REMARK  264  A    between atoms: _644  and  _645
REMARK  265  A    between atoms: _648  and  _650
REMARK  266  A    between atoms: _650  and  _651
REMARK  267  A    between atoms: _654  and  _656
REMARK  268  A    between atoms: _656  and  _657
REMARK  269  A    between atoms: _656  and  _659
REMARK  270  A    between atoms: _659  and  _660
REMARK  271  A    between atoms: _662  and  _664
REMARK  272  A    between atoms: _664  and  _665
REMARK  273  A    between atoms: _664  and  _667
REMARK  274  A    between atoms: _667  and  _668
REMARK  275  A    between atoms: _668  and  _669
REMARK  276  A    between atoms: _673  and  _674
REMARK  277  A    between atoms: _679  and  _681
REMARK  278  A    between atoms: _681  and  _682
REMARK  279  A    between atoms: _681  and  _684
REMARK  280  A    between atoms: _684  and  _685
REMARK  281  A    between atoms: _687  and  _689
REMARK  282  A    between atoms: _689  and  _690
REMARK  283  A    between atoms: _689  and  _692
REMARK  284  A    between atoms: _692  and  _693
REMARK  285  A    between atoms: _693  and  _694
REMARK  286  A    between atoms: _699  and  _701
REMARK  287  A    between atoms: _701  and  _702
REMARK  288  A    between atoms: _701  and  _704
REMARK  289  A    between atoms: _704  and  _705
REMARK  290  A    between atoms: _705  and  _706
REMARK  291  A    between atoms: _711  and  _713
REMARK  292  A    between atoms: _713  and  _714
REMARK  293  A    between atoms: _713  and  _716
REMARK  294  A    between atoms: _716  and  _717
REMARK  295  A    between atoms: _720  and  _722
REMARK  296  A    between atoms: _722  and  _723
REMARK  297  A    between atoms: _722  and  _725
REMARK  298  A    between atoms: _725  and  _726
REMARK  299  A    between atoms: _729  and  _731
REMARK  300  A    between atoms: _731  and  _732
REMARK  301  A    between atoms: _731  and  _734
REMARK  302  A    between atoms: _734  and  _735
REMARK  303  A    between atoms: _741  and  _743
REMARK  304  A    between atoms: _743  and  _744
REMARK  305  A    between atoms: _743  and  _746
REMARK  306  A    between atoms: _746  and  _747
REMARK  307  A    between atoms: _752  and  _753
REMARK  308  A    between atoms: _755  and  _757
REMARK  309  A    between atoms: _757  and  _758
REMARK  310  A    between atoms: _757  and  _760
REMARK  311  A    between atoms: _760  and  _761
REMARK  312  A    between atoms: _767  and  _769
REMARK  313  A    between atoms: _769  and  _770
REMARK  314  A    between atoms: _769  and  _772
REMARK  315  A    between atoms: _772  and  _773
REMARK  316  A    between atoms: _778  and  _780
REMARK  317  A    between atoms: _780  and  _781
REMARK  318  A    between atoms: _780  and  _783
REMARK  319  A    between atoms: _783  and  _784
REMARK  320  A    between atoms: _784  and  _785
REMARK                            x       y       z     vdW  Elec       q    Type
REMARK                         _______ _______ _______ _____ _____    ______ ____
ROOT
ATOM      1  O   HOH     1      19.511  43.653  14.681  0.00  0.00    +0.000 OA
ENDROOT
TORSDOF 0
REMARK  Name = ../refined-set-2016/3drf/3drf_pocket.pdb
REMARK  320 active torsions:
REMARK  status: ('A' for Active; 'I' for Inactive)
REMARK    1  A    between atoms: _1  and  _3
REMARK    2  A    between atoms: _3  and  _4
REMARK    3  A    between atoms: _3  and  _6
REMARK    4  A    between atoms: _6  and  _7
REMARK    5  A    between atoms: _12  and  _13
REMARK    6  A    between atoms: _15  and  _17
REMARK    7  A    between atoms: _17  and  _18
REMARK    8  A    between atoms: _17  and  _20
REMARK    9  A    between atoms: _20  and  _21
REMARK   10  A    between atoms: _21  and  _22
REMARK   11  A    between atoms: _27  and  _29
REMARK   12  A    between atoms: _29  and  _30
REMARK   13  A    between atoms: _29  and  _32
REMARK   14  A    between atoms: _32  and  _33
REMARK   15  A    between atoms: _35  and  _37
REMARK   16  A    between atoms: _37  and  _38
REMARK   17  A    between atoms: _37  and  _40
REMARK   18  A    between atoms: _40  and  _41
REMARK   19  A    between atoms: _44  and  _46
REMARK   20  A    between atoms: _46  and  _47
REMARK   21  A    between atoms: _46  and  _49
REMARK   22  A    between atoms: _49  and  _50
REMARK   23  A    between atoms: _52  and  _54
REMARK   24  A    between atoms: _54  and  _55
REMARK   25  A    between atoms: _54  and  _57
REMARK   26  A    between atoms: _57  and  _58
REMARK   27  A    between atoms: _60  and  _62
REMARK   28  A    between atoms: _62  and  _63
REMARK   29  A    between atoms: _65  and  _67
REMARK   30  A    between atoms: _67  and  _68
REMARK   31  A    between atoms: _67  and  _70
REMARK   32  A    between atoms: _70  and  _71
REMARK   33  A    between atoms: _73  and  _75
REMARK   34  A    between atoms: _75  and  _76
REMARK   35  A    between atoms: _75  and  _78
REMARK   36  A    between atoms: _78  and  _79
REMARK   37  A    between atoms: _84  and  _86
REMARK   38  A    between atoms: _86  and  _87
REMARK   39  A    between atoms: _86  and  _89
REMARK   40  A    between atoms: _89  and  _90
REMARK   41  A    between atoms: _93  and  _95
REMARK   42  A    between atoms: _95  and  _96
REMARK   43  A    between atoms: _99  and  _101
REMARK   44  A    between atoms: _101  and  _102
REMARK   45  A    between atoms: _101  and  _104
REMARK   46  A    between atoms: _104  and  _105
REMARK   47  A    between atoms: _108  and  _110
REMARK   48  A    between atoms: _110  and  _111
REMARK   49  A    between atoms: _110  and  _113
REMARK   50  A    between atoms: _113  and  _114
REMARK   51  A    between atoms: _120  and  _122
REMARK   52  A    between atoms: _122  and  _123
REMARK   53  A    between atoms: _126  and  _128
REMARK   54  A    between atoms: _128  and  _129
REMARK   55  A    between atoms: _128  and  _131
REMARK   56  A    between atoms: _131  and  _132
REMARK   57  A    between atoms: _135  and  _137
REMARK   58  A    between atoms: _137  and  _138
REMARK   59  A    between atoms: _140  and  _142
REMARK   60  A    between atoms: _142  and  _143
REMARK   61  A    between atoms: _142  and  _145
REMARK   62  A    between atoms: _145  and  _146
REMARK   63  A    between atoms: _146  and  _147
REMARK   64  A    between atoms: _152  and  _154
REMARK   65  A    between atoms: _154  and  _155
REMARK   66  A    between atoms: _157  and  _159
REMARK   67  A    between atoms: _159  and  _160
REMARK   68  A    between atoms: _159  and  _162
REMARK   69  A    between atoms: _162  and  _163
REMARK   70  A    between atoms: _166  and  _168
REMARK   71  A    between atoms: _168  and  _169
REMARK   72  A    between atoms: _168  and  _171
REMARK   73  A    between atoms: _171  and  _172
REMARK   74  A    between atoms: _178  and  _180
REMARK   75  A    between atoms: _180  and  _181
REMARK   76  A    between atoms: _180  and  _183
REMARK   77  A    between atoms: _183  and  _184
REMARK   78  A    between atoms: _187  and  _189
REMARK   79  A    between atoms: _189  and  _190
REMARK   80  A    between atoms: _189  and  _192
REMARK   81  A    between atoms: _192  and  _193
REMARK   82  A    between atoms: _199  and  _201
REMARK   83  A    between atoms: _201  and  _202
REMARK   84  A    between atoms: _201  and  _204
REMARK   85  A    between atoms: _204  and  _205
REMARK   86  A    between atoms: _211  and  _213
REMARK   87  A    between atoms: _213  and  _214
REMARK   88  A    between atoms: _213  and  _216
REMARK   89  A    between atoms: _216  and  _217
REMARK   90  A    between atoms: _220  and  _222
REMARK   91  A    between atoms: _222  and  _223
REMARK   92  A    between atoms: _222  and  _225
REMARK   93  A    between atoms: _225  and  _226
REMARK   94  A    between atoms: _229  and  _231
REMARK   95  A    between atoms: _231  and  _232
REMARK   96  A    between atoms: _231  and  _234
REMARK   97  A    between atoms: _234  and  _235
REMARK   98  A    between atoms: _235  and  _236
REMARK   99  A    between atoms: _236  and  _237
REMARK  100  A    between atoms: _246  and  _248
REMARK  101  A    between atoms: _248  and  _249
REMARK  102  A    between atoms: _248  and  _251
REMARK  103  A    between atoms: _251  and  _252
REMARK  104  A    between atoms: _255  and  _257
REMARK  105  A    between atoms: _257  and  _258
REMARK  106  A    between atoms: _257  and  _260
REMARK  107  A    between atoms: _260  and  _261
REMARK  108  A    between atoms: _263  and  _265
REMARK  109  A    between atoms: _265  and  _266
REMARK  110  A    between atoms: _265  and  _268
REMARK  111  A    between atoms: _268  and  _269
REMARK  112  A    between atoms: _269  and  _270
REMARK  113  A    between atoms: _275  and  _277
REMARK  114  A    between atoms: _277  and  _278
REMARK  115  A    between atoms: _277  and  _280
REMARK  116  A    between atoms: _280  and  _281
REMARK  117  A    between atoms: _283  and  _285
REMARK  118  A    between atoms: _285  and  _286
REMARK  119  A    between atoms: _288  and  _290
REMARK  120  A    between atoms: _290  and  _291
REMARK  121  A    between atoms: _290  and  _293
REMARK  122  A    between atoms: _293  and  _294
REMARK  123  A    between atoms: _299  and  _301
REMARK  124  A    between atoms: _301  and  _302
REMARK  125  A    between atoms: _304  and  _306
REMARK  126  A    between atoms: _306  and  _307
REMARK  127  A    between atoms: _306  and  _309
REMARK  128  A    between atoms: _309  and  _310
REMARK  129  A    between atoms: _315  and  _316
REMARK  130  A    between atoms: _318  and  _320
REMARK  131  A    between atoms: _320  and  _321
REMARK  132  A    between atoms: _320  and  _323
REMARK  133  A    between atoms: _323  and  _324
REMARK  134  A    between atoms: _330  and  _332
REMARK  135  A    between atoms: _332  and  _333
REMARK  136  A    between atoms: _332  and  _335
REMARK  137  A    between atoms: _335  and  _336
REMARK  138  A    between atoms: _339  and  _341
REMARK  139  A    between atoms: _341  and  _342
REMARK  140  A    between atoms: _341  and  _344
REMARK  141  A    between atoms: _344  and  _345
REMARK  142  A    between atoms: _345  and  _346
REMARK  143  A    between atoms: _349  and  _351
REMARK  144  A    between atoms: _351  and  _352
REMARK  145  A    between atoms: _351  and  _354
REMARK  146  A    between atoms: _354  and  _355
REMARK  147  A    between atoms: _358  and  _360
REMARK  148  A    between atoms: _360  and  _361
REMARK  149  A    between atoms: _360  and  _363
REMARK  150  A    between atoms: _363  and  _364
REMARK  151  A    between atoms: _367  and  _369
REMARK  152  A    between atoms: _369  and  _370
REMARK  153  A    between atoms: _372  and  _374
REMARK  154  A    between atoms: _374  and  _375
REMARK  155  A    between atoms: _374  and  _377
REMARK  156  A    between atoms: _380  and  _382
REMARK  157  A    between atoms: _382  and  _383
REMARK  158  A    between atoms: _382  and  _385
REMARK  159  A    between atoms: _385  and  _386
REMARK  160  A    between atoms: _388  and  _390
REMARK  161  A    between atoms: _390  and  _391
REMARK  162  A    between atoms: _390  and  _393
REMARK  163  A    between atoms: _393  and  _394
REMARK  164  A    between atoms: _394  and  _395
REMARK  165  A    between atoms: _397  and  _399
REMARK  166  A    between atoms: _399  and  _400
REMARK  167  A    between atoms: _399  and  _402
REMARK  168  A    between atoms: _402  and  _403
REMARK  169  A    between atoms: _408  and  _409
REMARK  170  A    between atoms: _411  and  _413
REMARK  171  A    between atoms: _413  and  _414
REMARK  172  A    between atoms: _413  and  _416
REMARK  173  A    between atoms: _416  and  _417
REMARK  174  A    between atoms: _420  and  _422
REMARK  175  A    between atoms: _422  and  _423
REMARK  176  A    between atoms: _422  and  _425
REMARK  177  A    between atoms: _425  and  _426
REMARK  178  A    between atoms: _428  and  _430
REMARK  179  A    between atoms: _430  and  _431
REMARK  180  A    between atoms: _430  and  _433
REMARK  181  A    between atoms: _433  and  _434
REMARK  182  A    between atoms: _437  and  _439
REMARK  183  A    between atoms: _439  and  _440
REMARK  184  A    between atoms: _439  and  _442
REMARK  185  A    between atoms: _442  and  _443
REMARK  186  A    between atoms: _448  and  _449
REMARK  187  A    between atoms: _451  and  _453
REMARK  188  A    between atoms: _453  and  _454
REMARK  189  A    between atoms: _453  and  _456
REMARK  190  A    between atoms: _456  and  _457
REMARK  191  A    between atoms: _459  and  _461
REMARK  192  A    between atoms: _461  and  _462
REMARK  193  A    between atoms: _461  and  _464
REMARK  194  A    between atoms: _464  and  _465
REMARK  195  A    between atoms: _471  and  _473
REMARK  196  A    between atoms: _473  and  _474
REMARK  197  A    between atoms: _473  and  _476
REMARK  198  A    between atoms: _476  and  _477
REMARK  199  A    between atoms: _477  and  _478
REMARK  200  A    between atoms: _478  and  _479
REMARK  201  A    between atoms: _488  and  _490
REMARK  202  A    between atoms: _490  and  _491
REMARK  203  A    between atoms: _490  and  _493
REMARK  204  A    between atoms: _496  and  _498
REMARK  205  A    between atoms: _498  and  _499
REMARK  206  A    between atoms: _501  and  _503
REMARK  207  A    between atoms: _503  and  _504
REMARK  208  A    between atoms: _503  and  _506
REMARK  209  A    between atoms: _506  and  _507
REMARK  210  A    between atoms: _510  and  _512
REMARK  211  A    between atoms: _512  and  _513
REMARK  212  A    between atoms: _512  and  _515
REMARK  213  A    between atoms: _515  and  _516
REMARK  214  A    between atoms: _516  and  _517
REMARK  215  A    between atoms: _519  and  _521
REMARK  216  A    between atoms: _521  and  _522
REMARK  217  A    between atoms: _521  and  _524
REMARK  218  A    between atoms: _524  and  _525
REMARK  219  A    between atoms: _531  and  _533
REMARK  220  A    between atoms: _533  and  _534
REMARK  221  A    between atoms: _533  and  _536
REMARK  222  A    between atoms: _536  and  _537
REMARK  223  A    between atoms: _542  and  _544
REMARK  224  A    between atoms: _544  and  _545
REMARK  225  A    between atoms: _544  and  _547
REMARK  226  A    between atoms: _547  and  _548
REMARK  227  A    between atoms: _558  and  _560
REMARK  228  A    between atoms: _560  and  _561
REMARK  229  A    between atoms: _560  and  _563
REMARK  230  A    between atoms: _566  and  _568
REMARK  231  A    between atoms: _568  and  _569
REMARK  232  A    between atoms: _568  and  _571
REMARK  233  A    between atoms: _571  and  _572
REMARK  234  A    between atoms: _575  and  _577
REMARK  235  A    between atoms: _577  and  _578
REMARK  236  A    between atoms: _577  and  _580
REMARK  237  A    between atoms: _580  and  _581
REMARK  238  A    between atoms: _581  and  _582
REMARK  239  A    between atoms: _584  and  _586
REMARK  240  A    between atoms: _586  and  _587
REMARK  241  A    between atoms: _586  and  _589
REMARK  242  A    between atoms: _589  and  _590
REMARK  243  A    between atoms: _593  and  _595
REMARK  244  A    between atoms: _595  and  _596
REMARK  245  A    between atoms: _595  and  _598
REMARK  246  A    between atoms: _598  and  _599
REMARK  247  A    between atoms: _602  and  _604
REMARK  248  A    between atoms: _604  and  _605
REMARK  249  A    between atoms: _607  and  _609
REMARK  250  A    between atoms: _609  and  _610
REMARK  251  A    between atoms: _609  and  _612
REMARK  252  A    between atoms: _612  and  _613
REMARK  253  A    between atoms: _615  and  _617
REMARK  254  A    between atoms: _617  and  _618
REMARK  255  A    between atoms: _617  and  _620
REMARK  256  A    between atoms: _620  and  _621
REMARK  257  A    between atoms: _631  and  _633
REMARK  258  A    between atoms: _633  and  _634
REMARK  259  A    between atoms: _633  and  _636
REMARK  260  A    between atoms: _636  and  _637
REMARK  261  A    between atoms: _639  and  _641
REMARK  262  A    between atoms: _641  and  _642
REMARK  263  A    between atoms: _641  and  _644
REMARK  264  A    between atoms: _644  and  _645
REMARK  265  A    between atoms: _648  and  _650
REMARK  266  A    between atoms: _650  and  _651
REMARK  267  A    between atoms: _654  and  _656
REMARK  268  A    between atoms: _656  and  _657
REMARK  269  A    between atoms: _656  and  _659
REMARK  270  A    between atoms: _659  and  _660
REMARK  271  A    between atoms: _662  and  _664
REMARK  272  A    between atoms: _664  and  _665
REMARK  273  A    between atoms: _664  and  _667
REMARK  274  A    between atoms: _667  and  _668
REMARK  275  A    between atoms: _668  and  _669
REMARK  276  A    between atoms: _673  and  _674
REMARK  277  A    between atoms: _679  and  _681
REMARK  278  A    between atoms: _681  and  _682
REMARK  279  A    between atoms: _681  and  _684
REMARK  280  A    between atoms: _684  and  _685
REMARK  281  A    between atoms: _687  and  _689
REMARK  282  A    between atoms: _689  and  _690
REMARK  283  A    between atoms: _689  and  _692
REMARK  284  A    between atoms: _692  and  _693
REMARK  285  A    between atoms: _693  and  _694
REMARK  286  A    between atoms: _699  and  _701
REMARK  287  A    between atoms: _701  and  _702
REMARK  288  A    between atoms: _701  and  _704
REMARK  289  A    between atoms: _704  and  _705
REMARK  290  A    between atoms: _705  and  _706
REMARK  291  A    between atoms: _711  and  _713
REMARK  292  A    between atoms: _713  and  _714
REMARK  293  A    between atoms: _713  and  _716
REMARK  294  A    between atoms: _716  and  _717
REMARK  295  A    between atoms: _720  and  _722
REMARK  296  A    between atoms: _722  and  _723
REMARK  297  A    between atoms: _722  and  _725
REMARK  298  A    between atoms: _725  and  _726
REMARK  299  A    between atoms: _729  and  _731
REMARK  300  A    between atoms: _731  and  _732
REMARK  301  A    between atoms: _731  and  _734
REMARK  302  A    between atoms: _734  and  _735
REMARK  303  A    between atoms: _741  and  _743
REMARK  304  A    between atoms: _743  and  _744
REMARK  305  A    between atoms: _743  and  _746
REMARK  306  A    between atoms: _746  and  _747
REMARK  307  A    between atoms: _752  and  _753
REMARK  308  A    between atoms: _755  and  _757
REMARK  309  A    between atoms: _757  and  _758
REMARK  310  A    between atoms: _757  and  _760
REMARK  311  A    between atoms: _760  and  _761
REMARK  312  A    between atoms: _767  and  _769
REMARK  313  A    between atoms: _769  and  _770
REMARK  314  A    between atoms: _769  and  _772
REMARK  315  A    between atoms: _772  and  _773
REMARK  316  A    between atoms: _778  and  _780
REMARK  317  A    between atoms: _780  and  _781
REMARK  318  A    between atoms: _780  and  _783
REMARK  319  A    between atoms: _783  and  _784
REMARK  320  A    between atoms: _784  and  _785
REMARK                            x       y       z     vdW  Elec       q    Type
REMARK                         _______ _______ _______ _____ _____    ______ ____
ROOT
ATOM      1  O   HOH     1      10.166  43.773  24.251  0.00  0.00    +0.000 OA
ENDROOT
TORSDOF 0
REMARK  Name = ../refined-set-2016/3drf/3drf_pocket.pdb
REMARK  320 active torsions:
REMARK  status: ('A' for Active; 'I' for Inactive)
REMARK    1  A    between atoms: _1  and  _3
REMARK    2  A    between atoms: _3  and  _4
REMARK    3  A    between atoms: _3  and  _6
REMARK    4  A    between atoms: _6  and  _7
REMARK    5  A    between atoms: _12  and  _13
REMARK    6  A    between atoms: _15  and  _17
REMARK    7  A    between atoms: _17  and  _18
REMARK    8  A    between atoms: _17  and  _20
REMARK    9  A    between atoms: _20  and  _21
REMARK   10  A    between atoms: _21  and  _22
REMARK   11  A    between atoms: _27  and  _29
REMARK   12  A    between atoms: _29  and  _30
REMARK   13  A    between atoms: _29  and  _32
REMARK   14  A    between atoms: _32  and  _33
REMARK   15  A    between atoms: _35  and  _37
REMARK   16  A    between atoms: _37  and  _38
REMARK   17  A    between atoms: _37  and  _40
REMARK   18  A    between atoms: _40  and  _41
REMARK   19  A    between atoms: _44  and  _46
REMARK   20  A    between atoms: _46  and  _47
REMARK   21  A    between atoms: _46  and  _49
REMARK   22  A    between atoms: _49  and  _50
REMARK   23  A    between atoms: _52  and  _54
REMARK   24  A    between atoms: _54  and  _55
REMARK   25  A    between atoms: _54  and  _57
REMARK   26  A    between atoms: _57  and  _58
REMARK   27  A    between atoms: _60  and  _62
REMARK   28  A    between atoms: _62  and  _63
REMARK   29  A    between atoms: _65  and  _67
REMARK   30  A    between atoms: _67  and  _68
REMARK   31  A    between atoms: _67  and  _70
REMARK   32  A    between atoms: _70  and  _71
REMARK   33  A    between atoms: _73  and  _75
REMARK   34  A    between atoms: _75  and  _76
REMARK   35  A    between atoms: _75  and  _78
REMARK   36  A    between atoms: _78  and  _79
REMARK   37  A    between atoms: _84  and  _86
REMARK   38  A    between atoms: _86  and  _87
REMARK   39  A    between atoms: _86  and  _89
REMARK   40  A    between atoms: _89  and  _90
REMARK   41  A    between atoms: _93  and  _95
REMARK   42  A    between atoms: _95  and  _96
REMARK   43  A    between atoms: _99  and  _101
REMARK   44  A    between atoms: _101  and  _102
REMARK   45  A    between atoms: _101  and  _104
REMARK   46  A    between atoms: _104  and  _105
REMARK   47  A    between atoms: _108  and  _110
REMARK   48  A    between atoms: _110  and  _111
REMARK   49  A    between atoms: _110  and  _113
REMARK   50  A    between atoms: _113  and  _114
REMARK   51  A    between atoms: _120  and  _122
REMARK   52  A    between atoms: _122  and  _123
REMARK   53  A    between atoms: _126  and  _128
REMARK   54  A    between atoms: _128  and  _129
REMARK   55  A    between atoms: _128  and  _131
REMARK   56  A    between atoms: _131  and  _132
REMARK   57  A    between atoms: _135  and  _137
REMARK   58  A    between atoms: _137  and  _138
REMARK   59  A    between atoms: _140  and  _142
REMARK   60  A    between atoms: _142  and  _143
REMARK   61  A    between atoms: _142  and  _145
REMARK   62  A    between atoms: _145  and  _146
REMARK   63  A    between atoms: _146  and  _147
REMARK   64  A    between atoms: _152  and  _154
REMARK   65  A    between atoms: _154  and  _155
REMARK   66  A    between atoms: _157  and  _159
REMARK   67  A    between atoms: _159  and  _160
REMARK   68  A    between atoms: _159  and  _162
REMARK   69  A    between atoms: _162  and  _163
REMARK   70  A    between atoms: _166  and  _168
REMARK   71  A    between atoms: _168  and  _169
REMARK   72  A    between atoms: _168  and  _171
REMARK   73  A    between atoms: _171  and  _172
REMARK   74  A    between atoms: _178  and  _180
REMARK   75  A    between atoms: _180  and  _181
REMARK   76  A    between atoms: _180  and  _183
REMARK   77  A    between atoms: _183  and  _184
REMARK   78  A    between atoms: _187  and  _189
REMARK   79  A    between atoms: _189  and  _190
REMARK   80  A    between atoms: _189  and  _192
REMARK   81  A    between atoms: _192  and  _193
REMARK   82  A    between atoms: _199  and  _201
REMARK   83  A    between atoms: _201  and  _202
REMARK   84  A    between atoms: _201  and  _204
REMARK   85  A    between atoms: _204  and  _205
REMARK   86  A    between atoms: _211  and  _213
REMARK   87  A    between atoms: _213  and  _214
REMARK   88  A    between atoms: _213  and  _216
REMARK   89  A    between atoms: _216  and  _217
REMARK   90  A    between atoms: _220  and  _222
REMARK   91  A    between atoms: _222  and  _223
REMARK   92  A    between atoms: _222  and  _225
REMARK   93  A    between atoms: _225  and  _226
REMARK   94  A    between atoms: _229  and  _231
REMARK   95  A    between atoms: _231  and  _232
REMARK   96  A    between atoms: _231  and  _234
REMARK   97  A    between atoms: _234  and  _235
REMARK   98  A    between atoms: _235  and  _236
REMARK   99  A    between atoms: _236  and  _237
REMARK  100  A    between atoms: _246  and  _248
REMARK  101  A    between atoms: _248  and  _249
REMARK  102  A    between atoms: _248  and  _251
REMARK  103  A    between atoms: _251  and  _252
REMARK  104  A    between atoms: _255  and  _257
REMARK  105  A    between atoms: _257  and  _258
REMARK  106  A    between atoms: _257  and  _260
REMARK  107  A    between atoms: _260  and  _261
REMARK  108  A    between atoms: _263  and  _265
REMARK  109  A    between atoms: _265  and  _266
REMARK  110  A    between atoms: _265  and  _268
REMARK  111  A    between atoms: _268  and  _269
REMARK  112  A    between atoms: _269  and  _270
REMARK  113  A    between atoms: _275  and  _277
REMARK  114  A    between atoms: _277  and  _278
REMARK  115  A    between atoms: _277  and  _280
REMARK  116  A    between atoms: _280  and  _281
REMARK  117  A    between atoms: _283  and  _285
REMARK  118  A    between atoms: _285  and  _286
REMARK  119  A    between atoms: _288  and  _290
REMARK  120  A    between atoms: _290  and  _291
REMARK  121  A    between atoms: _290  and  _293
REMARK  122  A    between atoms: _293  and  _294
REMARK  123  A    between atoms: _299  and  _301
REMARK  124  A    between atoms: _301  and  _302
REMARK  125  A    between atoms: _304  and  _306
REMARK  126  A    between atoms: _306  and  _307
REMARK  127  A    between atoms: _306  and  _309
REMARK  128  A    between atoms: _309  and  _310
REMARK  129  A    between atoms: _315  and  _316
REMARK  130  A    between atoms: _318  and  _320
REMARK  131  A    between atoms: _320  and  _321
REMARK  132  A    between atoms: _320  and  _323
REMARK  133  A    between atoms: _323  and  _324
REMARK  134  A    between atoms: _330  and  _332
REMARK  135  A    between atoms: _332  and  _333
REMARK  136  A    between atoms: _332  and  _335
REMARK  137  A    between atoms: _335  and  _336
REMARK  138  A    between atoms: _339  and  _341
REMARK  139  A    between atoms: _341  and  _342
REMARK  140  A    between atoms: _341  and  _344
REMARK  141  A    between atoms: _344  and  _345
REMARK  142  A    between atoms: _345  and  _346
REMARK  143  A    between atoms: _349  and  _351
REMARK  144  A    between atoms: _351  and  _352
REMARK  145  A    between atoms: _351  and  _354
REMARK  146  A    between atoms: _354  and  _355
REMARK  147  A    between atoms: _358  and  _360
REMARK  148  A    between atoms: _360  and  _361
REMARK  149  A    between atoms: _360  and  _363
REMARK  150  A    between atoms: _363  and  _364
REMARK  151  A    between atoms: _367  and  _369
REMARK  152  A    between atoms: _369  and  _370
REMARK  153  A    between atoms: _372  and  _374
REMARK  154  A    between atoms: _374  and  _375
REMARK  155  A    between atoms: _374  and  _377
REMARK  156  A    between atoms: _380  and  _382
REMARK  157  A    between atoms: _382  and  _383
REMARK  158  A    between atoms: _382  and  _385
REMARK  159  A    between atoms: _385  and  _386
REMARK  160  A    between atoms: _388  and  _390
REMARK  161  A    between atoms: _390  and  _391
REMARK  162  A    between atoms: _390  and  _393
REMARK  163  A    between atoms: _393  and  _394
REMARK  164  A    between atoms: _394  and  _395
REMARK  165  A    between atoms: _397  and  _399
REMARK  166  A    between atoms: _399  and  _400
REMARK  167  A    between atoms: _399  and  _402
REMARK  168  A    between atoms: _402  and  _403
REMARK  169  A    between atoms: _408  and  _409
REMARK  170  A    between atoms: _411  and  _413
REMARK  171  A    between atoms: _413  and  _414
REMARK  172  A    between atoms: _413  and  _416
REMARK  173  A    between atoms: _416  and  _417
REMARK  174  A    between atoms: _420  and  _422
REMARK  175  A    between atoms: _422  and  _423
REMARK  176  A    between atoms: _422  and  _425
REMARK  177  A    between atoms: _425  and  _426
REMARK  178  A    between atoms: _428  and  _430
REMARK  179  A    between atoms: _430  and  _431
REMARK  180  A    between atoms: _430  and  _433
REMARK  181  A    between atoms: _433  and  _434
REMARK  182  A    between atoms: _437  and  _439
REMARK  183  A    between atoms: _439  and  _440
REMARK  184  A    between atoms: _439  and  _442
REMARK  185  A    between atoms: _442  and  _443
REMARK  186  A    between atoms: _448  and  _449
REMARK  187  A    between atoms: _451  and  _453
REMARK  188  A    between atoms: _453  and  _454
REMARK  189  A    between atoms: _453  and  _456
REMARK  190  A    between atoms: _456  and  _457
REMARK  191  A    between atoms: _459  and  _461
REMARK  192  A    between atoms: _461  and  _462
REMARK  193  A    between atoms: _461  and  _464
REMARK  194  A    between atoms: _464  and  _465
REMARK  195  A    between atoms: _471  and  _473
REMARK  196  A    between atoms: _473  and  _474
REMARK  197  A    between atoms: _473  and  _476
REMARK  198  A    between atoms: _476  and  _477
REMARK  199  A    between atoms: _477  and  _478
REMARK  200  A    between atoms: _478  and  _479
REMARK  201  A    between atoms: _488  and  _490
REMARK  202  A    between atoms: _490  and  _491
REMARK  203  A    between atoms: _490  and  _493
REMARK  204  A    between atoms: _496  and  _498
REMARK  205  A    between atoms: _498  and  _499
REMARK  206  A    between atoms: _501  and  _503
REMARK  207  A    between atoms: _503  and  _504
REMARK  208  A    between atoms: _503  and  _506
REMARK  209  A    between atoms: _506  and  _507
REMARK  210  A    between atoms: _510  and  _512
REMARK  211  A    between atoms: _512  and  _513
REMARK  212  A    between atoms: _512  and  _515
REMARK  213  A    between atoms: _515  and  _516
REMARK  214  A    between atoms: _516  and  _517
REMARK  215  A    between atoms: _519  and  _521
REMARK  216  A    between atoms: _521  and  _522
REMARK  217  A    between atoms: _521  and  _524
REMARK  218  A    between atoms: _524  and  _525
REMARK  219  A    between atoms: _531  and  _533
REMARK  220  A    between atoms: _533  and  _534
REMARK  221  A    between atoms: _533  and  _536
REMARK  222  A    between atoms: _536  and  _537
REMARK  223  A    between atoms: _542  and  _544
REMARK  224  A    between atoms: _544  and  _545
REMARK  225  A    between atoms: _544  and  _547
REMARK  226  A    between atoms: _547  and  _548
REMARK  227  A    between atoms: _558  and  _560
REMARK  228  A    between atoms: _560  and  _561
REMARK  229  A    between atoms: _560  and  _563
REMARK  230  A    between atoms: _566  and  _568
REMARK  231  A    between atoms: _568  and  _569
REMARK  232  A    between atoms: _568  and  _571
REMARK  233  A    between atoms: _571  and  _572
REMARK  234  A    between atoms: _575  and  _577
REMARK  235  A    between atoms: _577  and  _578
REMARK  236  A    between atoms: _577  and  _580
REMARK  237  A    between atoms: _580  and  _581
REMARK  238  A    between atoms: _581  and  _582
REMARK  239  A    between atoms: _584  and  _586
REMARK  240  A    between atoms: _586  and  _587
REMARK  241  A    between atoms: _586  and  _589
REMARK  242  A    between atoms: _589  and  _590
REMARK  243  A    between atoms: _593  and  _595
REMARK  244  A    between atoms: _595  and  _596
REMARK  245  A    between atoms: _595  and  _598
REMARK  246  A    between atoms: _598  and  _599
REMARK  247  A    between atoms: _602  and  _604
REMARK  248  A    between atoms: _604  and  _605
REMARK  249  A    between atoms: _607  and  _609
REMARK  250  A    between atoms: _609  and  _610
REMARK  251  A    between atoms: _609  and  _612
REMARK  252  A    between atoms: _612  and  _613
REMARK  253  A    between atoms: _615  and  _617
REMARK  254  A    between atoms: _617  and  _618
REMARK  255  A    between atoms: _617  and  _620
REMARK  256  A    between atoms: _620  and  _621
REMARK  257  A    between atoms: _631  and  _633
REMARK  258  A    between atoms: _633  and  _634
REMARK  259  A    between atoms: _633  and  _636
REMARK  260  A    between atoms: _636  and  _637
REMARK  261  A    between atoms: _639  and  _641
REMARK  262  A    between atoms: _641  and  _642
REMARK  263  A    between atoms: _641  and  _644
REMARK  264  A    between atoms: _644  and  _645
REMARK  265  A    between atoms: _648  and  _650
REMARK  266  A    between atoms: _650  and  _651
REMARK  267  A    between atoms: _654  and  _656
REMARK  268  A    between atoms: _656  and  _657
REMARK  269  A    between atoms: _656  and  _659
REMARK  270  A    between atoms: _659  and  _660
REMARK  271  A    between atoms: _662  and  _664
REMARK  272  A    between atoms: _664  and  _665
REMARK  273  A    between atoms: _664  and  _667
REMARK  274  A    between atoms: _667  and  _668
REMARK  275  A    between atoms: _668  and  _669
REMARK  276  A    between atoms: _673  and  _674
REMARK  277  A    between atoms: _679  and  _681
REMARK  278  A    between atoms: _681  and  _682
REMARK  279  A    between atoms: _681  and  _684
REMARK  280  A    between atoms: _684  and  _685
REMARK  281  A    between atoms: _687  and  _689
REMARK  282  A    between atoms: _689  and  _690
REMARK  283  A    between atoms: _689  and  _692
REMARK  284  A    between atoms: _692  and  _693
REMARK  285  A    between atoms: _693  and  _694
REMARK  286  A    between atoms: _699  and  _701
REMARK  287  A    between atoms: _701  and  _702
REMARK  288  A    between atoms: _701  and  _704
REMARK  289  A    between atoms: _704  and  _705
REMARK  290  A    between atoms: _705  and  _706
REMARK  291  A    between atoms: _711  and  _713
REMARK  292  A    between atoms: _713  and  _714
REMARK  293  A    between atoms: _713  and  _716
REMARK  294  A    between atoms: _716  and  _717
REMARK  295  A    between atoms: _720  and  _722
REMARK  296  A    between atoms: _722  and  _723
REMARK  297  A    between atoms: _722  and  _725
REMARK  298  A    between atoms: _725  and  _726
REMARK  299  A    between atoms: _729  and  _731
REMARK  300  A    between atoms: _731  and  _732
REMARK  301  A    between atoms: _731  and  _734
REMARK  302  A    between atoms: _734  and  _735
REMARK  303  A    between atoms: _741  and  _743
REMARK  304  A    between atoms: _743  and  _744
REMARK  305  A    between atoms: _743  and  _746
REMARK  306  A    between atoms: _746  and  _747
REMARK  307  A    between atoms: _752  and  _753
REMARK  308  A    between atoms: _755  and  _757
REMARK  309  A    between atoms: _757  and  _758
REMARK  310  A    between atoms: _757  and  _760
REMARK  311  A    between atoms: _760  and  _761
REMARK  312  A    between atoms: _767  and  _769
REMARK  313  A    between atoms: _769  and  _770
REMARK  314  A    between atoms: _769  and  _772
REMARK  315  A    between atoms: _772  and  _773
REMARK  316  A    between atoms: _778  and  _780
REMARK  317  A    between atoms: _780  and  _781
REMARK  318  A    between atoms: _780  and  _783
REMARK  319  A    between atoms: _783  and  _784
REMARK  320  A    between atoms: _784  and  _785
REMARK                            x       y       z     vdW  Elec       q    Type
REMARK                         _______ _______ _______ _____ _____    ______ ____
ROOT
ATOM      1  O   HOH     1      11.017  62.783  26.776  0.00  0.00    +0.000 OA
ENDROOT
TORSDOF 0
REMARK  Name = ../refined-set-2016/3drf/3drf_pocket.pdb
REMARK  320 active torsions:
REMARK  status: ('A' for Active; 'I' for Inactive)
REMARK    1  A    between atoms: _1  and  _3
REMARK    2  A    between atoms: _3  and  _4
REMARK    3  A    between atoms: _3  and  _6
REMARK    4  A    between atoms: _6  and  _7
REMARK    5  A    between atoms: _12  and  _13
REMARK    6  A    between atoms: _15  and  _17
REMARK    7  A    between atoms: _17  and  _18
REMARK    8  A    between atoms: _17  and  _20
REMARK    9  A    between atoms: _20  and  _21
REMARK   10  A    between atoms: _21  and  _22
REMARK   11  A    between atoms: _27  and  _29
REMARK   12  A    between atoms: _29  and  _30
REMARK   13  A    between atoms: _29  and  _32
REMARK   14  A    between atoms: _32  and  _33
REMARK   15  A    between atoms: _35  and  _37
REMARK   16  A    between atoms: _37  and  _38
REMARK   17  A    between atoms: _37  and  _40
REMARK   18  A    between atoms: _40  and  _41
REMARK   19  A    between atoms: _44  and  _46
REMARK   20  A    between atoms: _46  and  _47
REMARK   21  A    between atoms: _46  and  _49
REMARK   22  A    between atoms: _49  and  _50
REMARK   23  A    between atoms: _52  and  _54
REMARK   24  A    between atoms: _54  and  _55
REMARK   25  A    between atoms: _54  and  _57
REMARK   26  A    between atoms: _57  and  _58
REMARK   27  A    between atoms: _60  and  _62
REMARK   28  A    between atoms: _62  and  _63
REMARK   29  A    between atoms: _65  and  _67
REMARK   30  A    between atoms: _67  and  _68
REMARK   31  A    between atoms: _67  and  _70
REMARK   32  A    between atoms: _70  and  _71
REMARK   33  A    between atoms: _73  and  _75
REMARK   34  A    between atoms: _75  and  _76
REMARK   35  A    between atoms: _75  and  _78
REMARK   36  A    between atoms: _78  and  _79
REMARK   37  A    between atoms: _84  and  _86
REMARK   38  A    between atoms: _86  and  _87
REMARK   39  A    between atoms: _86  and  _89
REMARK   40  A    between atoms: _89  and  _90
REMARK   41  A    between atoms: _93  and  _95
REMARK   42  A    between atoms: _95  and  _96
REMARK   43  A    between atoms: _99  and  _101
REMARK   44  A    between atoms: _101  and  _102
REMARK   45  A    between atoms: _101  and  _104
REMARK   46  A    between atoms: _104  and  _105
REMARK   47  A    between atoms: _108  and  _110
REMARK   48  A    between atoms: _110  and  _111
REMARK   49  A    between atoms: _110  and  _113
REMARK   50  A    between atoms: _113  and  _114
REMARK   51  A    between atoms: _120  and  _122
REMARK   52  A    between atoms: _122  and  _123
REMARK   53  A    between atoms: _126  and  _128
REMARK   54  A    between atoms: _128  and  _129
REMARK   55  A    between atoms: _128  and  _131
REMARK   56  A    between atoms: _131  and  _132
REMARK   57  A    between atoms: _135  and  _137
REMARK   58  A    between atoms: _137  and  _138
REMARK   59  A    between atoms: _140  and  _142
REMARK   60  A    between atoms: _142  and  _143
REMARK   61  A    between atoms: _142  and  _145
REMARK   62  A    between atoms: _145  and  _146
REMARK   63  A    between atoms: _146  and  _147
REMARK   64  A    between atoms: _152  and  _154
REMARK   65  A    between atoms: _154  and  _155
REMARK   66  A    between atoms: _157  and  _159
REMARK   67  A    between atoms: _159  and  _160
REMARK   68  A    between atoms: _159  and  _162
REMARK   69  A    between atoms: _162  and  _163
REMARK   70  A    between atoms: _166  and  _168
REMARK   71  A    between atoms: _168  and  _169
REMARK   72  A    between atoms: _168  and  _171
REMARK   73  A    between atoms: _171  and  _172
REMARK   74  A    between atoms: _178  and  _180
REMARK   75  A    between atoms: _180  and  _181
REMARK   76  A    between atoms: _180  and  _183
REMARK   77  A    between atoms: _183  and  _184
REMARK   78  A    between atoms: _187  and  _189
REMARK   79  A    between atoms: _189  and  _190
REMARK   80  A    between atoms: _189  and  _192
REMARK   81  A    between atoms: _192  and  _193
REMARK   82  A    between atoms: _199  and  _201
REMARK   83  A    between atoms: _201  and  _202
REMARK   84  A    between atoms: _201  and  _204
REMARK   85  A    between atoms: _204  and  _205
REMARK   86  A    between atoms: _211  and  _213
REMARK   87  A    between atoms: _213  and  _214
REMARK   88  A    between atoms: _213  and  _216
REMARK   89  A    between atoms: _216  and  _217
REMARK   90  A    between atoms: _220  and  _222
REMARK   91  A    between atoms: _222  and  _223
REMARK   92  A    between atoms: _222  and  _225
REMARK   93  A    between atoms: _225  and  _226
REMARK   94  A    between atoms: _229  and  _231
REMARK   95  A    between atoms: _231  and  _232
REMARK   96  A    between atoms: _231  and  _234
REMARK   97  A    between atoms: _234  and  _235
REMARK   98  A    between atoms: _235  and  _236
REMARK   99  A    between atoms: _236  and  _237
REMARK  100  A    between atoms: _246  and  _248
REMARK  101  A    between atoms: _248  and  _249
REMARK  102  A    between atoms: _248  and  _251
REMARK  103  A    between atoms: _251  and  _252
REMARK  104  A    between atoms: _255  and  _257
REMARK  105  A    between atoms: _257  and  _258
REMARK  106  A    between atoms: _257  and  _260
REMARK  107  A    between atoms: _260  and  _261
REMARK  108  A    between atoms: _263  and  _265
REMARK  109  A    between atoms: _265  and  _266
REMARK  110  A    between atoms: _265  and  _268
REMARK  111  A    between atoms: _268  and  _269
REMARK  112  A    between atoms: _269  and  _270
REMARK  113  A    between atoms: _275  and  _277
REMARK  114  A    between atoms: _277  and  _278
REMARK  115  A    between atoms: _277  and  _280
REMARK  116  A    between atoms: _280  and  _281
REMARK  117  A    between atoms: _283  and  _285
REMARK  118  A    between atoms: _285  and  _286
REMARK  119  A    between atoms: _288  and  _290
REMARK  120  A    between atoms: _290  and  _291
REMARK  121  A    between atoms: _290  and  _293
REMARK  122  A    between atoms: _293  and  _294
REMARK  123  A    between atoms: _299  and  _301
REMARK  124  A    between atoms: _301  and  _302
REMARK  125  A    between atoms: _304  and  _306
REMARK  126  A    between atoms: _306  and  _307
REMARK  127  A    between atoms: _306  and  _309
REMARK  128  A    between atoms: _309  and  _310
REMARK  129  A    between atoms: _315  and  _316
REMARK  130  A    between atoms: _318  and  _320
REMARK  131  A    between atoms: _320  and  _321
REMARK  132  A    between atoms: _320  and  _323
REMARK  133  A    between atoms: _323  and  _324
REMARK  134  A    between atoms: _330  and  _332
REMARK  135  A    between atoms: _332  and  _333
REMARK  136  A    between atoms: _332  and  _335
REMARK  137  A    between atoms: _335  and  _336
REMARK  138  A    between atoms: _339  and  _341
REMARK  139  A    between atoms: _341  and  _342
REMARK  140  A    between atoms: _341  and  _344
REMARK  141  A    between atoms: _344  and  _345
REMARK  142  A    between atoms: _345  and  _346
REMARK  143  A    between atoms: _349  and  _351
REMARK  144  A    between atoms: _351  and  _352
REMARK  145  A    between atoms: _351  and  _354
REMARK  146  A    between atoms: _354  and  _355
REMARK  147  A    between atoms: _358  and  _360
REMARK  148  A    between atoms: _360  and  _361
REMARK  149  A    between atoms: _360  and  _363
REMARK  150  A    between atoms: _363  and  _364
REMARK  151  A    between atoms: _367  and  _369
REMARK  152  A    between atoms: _369  and  _370
REMARK  153  A    between atoms: _372  and  _374
REMARK  154  A    between atoms: _374  and  _375
REMARK  155  A    between atoms: _374  and  _377
REMARK  156  A    between atoms: _380  and  _382
REMARK  157  A    between atoms: _382  and  _383
REMARK  158  A    between atoms: _382  and  _385
REMARK  159  A    between atoms: _385  and  _386
REMARK  160  A    between atoms: _388  and  _390
REMARK  161  A    between atoms: _390  and  _391
REMARK  162  A    between atoms: _390  and  _393
REMARK  163  A    between atoms: _393  and  _394
REMARK  164  A    between atoms: _394  and  _395
REMARK  165  A    between atoms: _397  and  _399
REMARK  166  A    between atoms: _399  and  _400
REMARK  167  A    between atoms: _399  and  _402
REMARK  168  A    between atoms: _402  and  _403
REMARK  169  A    between atoms: _408  and  _409
REMARK  170  A    between atoms: _411  and  _413
REMARK  171  A    between atoms: _413  and  _414
REMARK  172  A    between atoms: _413  and  _416
REMARK  173  A    between atoms: _416  and  _417
REMARK  174  A    between atoms: _420  and  _422
REMARK  175  A    between atoms: _422  and  _423
REMARK  176  A    between atoms: _422  and  _425
REMARK  177  A    between atoms: _425  and  _426
REMARK  178  A    between atoms: _428  and  _430
REMARK  179  A    between atoms: _430  and  _431
REMARK  180  A    between atoms: _430  and  _433
REMARK  181  A    between atoms: _433  and  _434
REMARK  182  A    between atoms: _437  and  _439
REMARK  183  A    between atoms: _439  and  _440
REMARK  184  A    between atoms: _439  and  _442
REMARK  185  A    between atoms: _442  and  _443
REMARK  186  A    between atoms: _448  and  _449
REMARK  187  A    between atoms: _451  and  _453
REMARK  188  A    between atoms: _453  and  _454
REMARK  189  A    between atoms: _453  and  _456
REMARK  190  A    between atoms: _456  and  _457
REMARK  191  A    between atoms: _459  and  _461
REMARK  192  A    between atoms: _461  and  _462
REMARK  193  A    between atoms: _461  and  _464
REMARK  194  A    between atoms: _464  and  _465
REMARK  195  A    between atoms: _471  and  _473
REMARK  196  A    between atoms: _473  and  _474
REMARK  197  A    between atoms: _473  and  _476
REMARK  198  A    between atoms: _476  and  _477
REMARK  199  A    between atoms: _477  and  _478
REMARK  200  A    between atoms: _478  and  _479
REMARK  201  A    between atoms: _488  and  _490
REMARK  202  A    between atoms: _490  and  _491
REMARK  203  A    between atoms: _490  and  _493
REMARK  204  A    between atoms: _496  and  _498
REMARK  205  A    between atoms: _498  and  _499
REMARK  206  A    between atoms: _501  and  _503
REMARK  207  A    between atoms: _503  and  _504
REMARK  208  A    between atoms: _503  and  _506
REMARK  209  A    between atoms: _506  and  _507
REMARK  210  A    between atoms: _510  and  _512
REMARK  211  A    between atoms: _512  and  _513
REMARK  212  A    between atoms: _512  and  _515
REMARK  213  A    between atoms: _515  and  _516
REMARK  214  A    between atoms: _516  and  _517
REMARK  215  A    between atoms: _519  and  _521
REMARK  216  A    between atoms: _521  and  _522
REMARK  217  A    between atoms: _521  and  _524
REMARK  218  A    between atoms: _524  and  _525
REMARK  219  A    between atoms: _531  and  _533
REMARK  220  A    between atoms: _533  and  _534
REMARK  221  A    between atoms: _533  and  _536
REMARK  222  A    between atoms: _536  and  _537
REMARK  223  A    between atoms: _542  and  _544
REMARK  224  A    between atoms: _544  and  _545
REMARK  225  A    between atoms: _544  and  _547
REMARK  226  A    between atoms: _547  and  _548
REMARK  227  A    between atoms: _558  and  _560
REMARK  228  A    between atoms: _560  and  _561
REMARK  229  A    between atoms: _560  and  _563
REMARK  230  A    between atoms: _566  and  _568
REMARK  231  A    between atoms: _568  and  _569
REMARK  232  A    between atoms: _568  and  _571
REMARK  233  A    between atoms: _571  and  _572
REMARK  234  A    between atoms: _575  and  _577
REMARK  235  A    between atoms: _577  and  _578
REMARK  236  A    between atoms: _577  and  _580
REMARK  237  A    between atoms: _580  and  _581
REMARK  238  A    between atoms: _581  and  _582
REMARK  239  A    between atoms: _584  and  _586
REMARK  240  A    between atoms: _586  and  _587
REMARK  241  A    between atoms: _586  and  _589
REMARK  242  A    between atoms: _589  and  _590
REMARK  243  A    between atoms: _593  and  _595
REMARK  244  A    between atoms: _595  and  _596
REMARK  245  A    between atoms: _595  and  _598
REMARK  246  A    between atoms: _598  and  _599
REMARK  247  A    between atoms: _602  and  _604
REMARK  248  A    between atoms: _604  and  _605
REMARK  249  A    between atoms: _607  and  _609
REMARK  250  A    between atoms: _609  and  _610
REMARK  251  A    between atoms: _609  and  _612
REMARK  252  A    between atoms: _612  and  _613
REMARK  253  A    between atoms: _615  and  _617
REMARK  254  A    between atoms: _617  and  _618
REMARK  255  A    between atoms: _617  and  _620
REMARK  256  A    between atoms: _620  and  _621
REMARK  257  A    between atoms: _631  and  _633
REMARK  258  A    between atoms: _633  and  _634
REMARK  259  A    between atoms: _633  and  _636
REMARK  260  A    between atoms: _636  and  _637
REMARK  261  A    between atoms: _639  and  _641
REMARK  262  A    between atoms: _641  and  _642
REMARK  263  A    between atoms: _641  and  _644
REMARK  264  A    between atoms: _644  and  _645
REMARK  265  A    between atoms: _648  and  _650
REMARK  266  A    between atoms: _650  and  _651
REMARK  267  A    between atoms: _654  and  _656
REMARK  268  A    between atoms: _656  and  _657
REMARK  269  A    between atoms: _656  and  _659
REMARK  270  A    between atoms: _659  and  _660
REMARK  271  A    between atoms: _662  and  _664
REMARK  272  A    between atoms: _664  and  _665
REMARK  273  A    between atoms: _664  and  _667
REMARK  274  A    between atoms: _667  and  _668
REMARK  275  A    between atoms: _668  and  _669
REMARK  276  A    between atoms: _673  and  _674
REMARK  277  A    between atoms: _679  and  _681
REMARK  278  A    between atoms: _681  and  _682
REMARK  279  A    between atoms: _681  and  _684
REMARK  280  A    between atoms: _684  and  _685
REMARK  281  A    between atoms: _687  and  _689
REMARK  282  A    between atoms: _689  and  _690
REMARK  283  A    between atoms: _689  and  _692
REMARK  284  A    between atoms: _692  and  _693
REMARK  285  A    between atoms: _693  and  _694
REMARK  286  A    between atoms: _699  and  _701
REMARK  287  A    between atoms: _701  and  _702
REMARK  288  A    between atoms: _701  and  _704
REMARK  289  A    between atoms: _704  and  _705
REMARK  290  A    between atoms: _705  and  _706
REMARK  291  A    between atoms: _711  and  _713
REMARK  292  A    between atoms: _713  and  _714
REMARK  293  A    between atoms: _713  and  _716
REMARK  294  A    between atoms: _716  and  _717
REMARK  295  A    between atoms: _720  and  _722
REMARK  296  A    between atoms: _722  and  _723
REMARK  297  A    between atoms: _722  and  _725
REMARK  298  A    between atoms: _725  and  _726
REMARK  299  A    between atoms: _729  and  _731
REMARK  300  A    between atoms: _731  and  _732
REMARK  301  A    between atoms: _731  and  _734
REMARK  302  A    between atoms: _734  and  _735
REMARK  303  A    between atoms: _741  and  _743
REMARK  304  A    between atoms: _743  and  _744
REMARK  305  A    between atoms: _743  and  _746
REMARK  306  A    between atoms: _746  and  _747
REMARK  307  A    between atoms: _752  and  _753
REMARK  308  A    between atoms: _755  and  _757
REMARK  309  A    between atoms: _757  and  _758
REMARK  310  A    between atoms: _757  and  _760
REMARK  311  A    between atoms: _760  and  _761
REMARK  312  A    between atoms: _767  and  _769
REMARK  313  A    between atoms: _769  and  _770
REMARK  314  A    between atoms: _769  and  _772
REMARK  315  A    between atoms: _772  and  _773
REMARK  316  A    between atoms: _778  and  _780
REMARK  317  A    between atoms: _780  and  _781
REMARK  318  A    between atoms: _780  and  _783
REMARK  319  A    between atoms: _783  and  _784
REMARK  320  A    between atoms: _784  and  _785
REMARK                            x       y       z     vdW  Elec       q    Type
REMARK                         _______ _______ _______ _____ _____    ______ ____
ROOT
ATOM      1  O   HOH     1      -4.734  55.277  33.512  0.00  0.00    +0.000 OA
ENDROOT
TORSDOF 0
REMARK  Name = ../refined-set-2016/3drf/3drf_pocket.pdb
REMARK  320 active torsions:
REMARK  status: ('A' for Active; 'I' for Inactive)
REMARK    1  A    between atoms: _1  and  _3
REMARK    2  A    between atoms: _3  and  _4
REMARK    3  A    between atoms: _3  and  _6
REMARK    4  A    between atoms: _6  and  _7
REMARK    5  A    between atoms: _12  and  _13
REMARK    6  A    between atoms: _15  and  _17
REMARK    7  A    between atoms: _17  and  _18
REMARK    8  A    between atoms: _17  and  _20
REMARK    9  A    between atoms: _20  and  _21
REMARK   10  A    between atoms: _21  and  _22
REMARK   11  A    between atoms: _27  and  _29
REMARK   12  A    between atoms: _29  and  _30
REMARK   13  A    between atoms: _29  and  _32
REMARK   14  A    between atoms: _32  and  _33
REMARK   15  A    between atoms: _35  and  _37
REMARK   16  A    between atoms: _37  and  _38
REMARK   17  A    between atoms: _37  and  _40
REMARK   18  A    between atoms: _40  and  _41
REMARK   19  A    between atoms: _44  and  _46
REMARK   20  A    between atoms: _46  and  _47
REMARK   21  A    between atoms: _46  and  _49
REMARK   22  A    between atoms: _49  and  _50
REMARK   23  A    between atoms: _52  and  _54
REMARK   24  A    between atoms: _54  and  _55
REMARK   25  A    between atoms: _54  and  _57
REMARK   26  A    between atoms: _57  and  _58
REMARK   27  A    between atoms: _60  and  _62
REMARK   28  A    between atoms: _62  and  _63
REMARK   29  A    between atoms: _65  and  _67
REMARK   30  A    between atoms: _67  and  _68
REMARK   31  A    between atoms: _67  and  _70
REMARK   32  A    between atoms: _70  and  _71
REMARK   33  A    between atoms: _73  and  _75
REMARK   34  A    between atoms: _75  and  _76
REMARK   35  A    between atoms: _75  and  _78
REMARK   36  A    between atoms: _78  and  _79
REMARK   37  A    between atoms: _84  and  _86
REMARK   38  A    between atoms: _86  and  _87
REMARK   39  A    between atoms: _86  and  _89
REMARK   40  A    between atoms: _89  and  _90
REMARK   41  A    between atoms: _93  and  _95
REMARK   42  A    between atoms: _95  and  _96
REMARK   43  A    between atoms: _99  and  _101
REMARK   44  A    between atoms: _101  and  _102
REMARK   45  A    between atoms: _101  and  _104
REMARK   46  A    between atoms: _104  and  _105
REMARK   47  A    between atoms: _108  and  _110
REMARK   48  A    between atoms: _110  and  _111
REMARK   49  A    between atoms: _110  and  _113
REMARK   50  A    between atoms: _113  and  _114
REMARK   51  A    between atoms: _120  and  _122
REMARK   52  A    between atoms: _122  and  _123
REMARK   53  A    between atoms: _126  and  _128
REMARK   54  A    between atoms: _128  and  _129
REMARK   55  A    between atoms: _128  and  _131
REMARK   56  A    between atoms: _131  and  _132
REMARK   57  A    between atoms: _135  and  _137
REMARK   58  A    between atoms: _137  and  _138
REMARK   59  A    between atoms: _140  and  _142
REMARK   60  A    between atoms: _142  and  _143
REMARK   61  A    between atoms: _142  and  _145
REMARK   62  A    between atoms: _145  and  _146
REMARK   63  A    between atoms: _146  and  _147
REMARK   64  A    between atoms: _152  and  _154
REMARK   65  A    between atoms: _154  and  _155
REMARK   66  A    between atoms: _157  and  _159
REMARK   67  A    between atoms: _159  and  _160
REMARK   68  A    between atoms: _159  and  _162
REMARK   69  A    between atoms: _162  and  _163
REMARK   70  A    between atoms: _166  and  _168
REMARK   71  A    between atoms: _168  and  _169
REMARK   72  A    between atoms: _168  and  _171
REMARK   73  A    between atoms: _171  and  _172
REMARK   74  A    between atoms: _178  and  _180
REMARK   75  A    between atoms: _180  and  _181
REMARK   76  A    between atoms: _180  and  _183
REMARK   77  A    between atoms: _183  and  _184
REMARK   78  A    between atoms: _187  and  _189
REMARK   79  A    between atoms: _189  and  _190
REMARK   80  A    between atoms: _189  and  _192
REMARK   81  A    between atoms: _192  and  _193
REMARK   82  A    between atoms: _199  and  _201
REMARK   83  A    between atoms: _201  and  _202
REMARK   84  A    between atoms: _201  and  _204
REMARK   85  A    between atoms: _204  and  _205
REMARK   86  A    between atoms: _211  and  _213
REMARK   87  A    between atoms: _213  and  _214
REMARK   88  A    between atoms: _213  and  _216
REMARK   89  A    between atoms: _216  and  _217
REMARK   90  A    between atoms: _220  and  _222
REMARK   91  A    between atoms: _222  and  _223
REMARK   92  A    between atoms: _222  and  _225
REMARK   93  A    between atoms: _225  and  _226
REMARK   94  A    between atoms: _229  and  _231
REMARK   95  A    between atoms: _231  and  _232
REMARK   96  A    between atoms: _231  and  _234
REMARK   97  A    between atoms: _234  and  _235
REMARK   98  A    between atoms: _235  and  _236
REMARK   99  A    between atoms: _236  and  _237
REMARK  100  A    between atoms: _246  and  _248
REMARK  101  A    between atoms: _248  and  _249
REMARK  102  A    between atoms: _248  and  _251
REMARK  103  A    between atoms: _251  and  _252
REMARK  104  A    between atoms: _255  and  _257
REMARK  105  A    between atoms: _257  and  _258
REMARK  106  A    between atoms: _257  and  _260
REMARK  107  A    between atoms: _260  and  _261
REMARK  108  A    between atoms: _263  and  _265
REMARK  109  A    between atoms: _265  and  _266
REMARK  110  A    between atoms: _265  and  _268
REMARK  111  A    between atoms: _268  and  _269
REMARK  112  A    between atoms: _269  and  _270
REMARK  113  A    between atoms: _275  and  _277
REMARK  114  A    between atoms: _277  and  _278
REMARK  115  A    between atoms: _277  and  _280
REMARK  116  A    between atoms: _280  and  _281
REMARK  117  A    between atoms: _283  and  _285
REMARK  118  A    between atoms: _285  and  _286
REMARK  119  A    between atoms: _288  and  _290
REMARK  120  A    between atoms: _290  and  _291
REMARK  121  A    between atoms: _290  and  _293
REMARK  122  A    between atoms: _293  and  _294
REMARK  123  A    between atoms: _299  and  _301
REMARK  124  A    between atoms: _301  and  _302
REMARK  125  A    between atoms: _304  and  _306
REMARK  126  A    between atoms: _306  and  _307
REMARK  127  A    between atoms: _306  and  _309
REMARK  128  A    between atoms: _309  and  _310
REMARK  129  A    between atoms: _315  and  _316
REMARK  130  A    between atoms: _318  and  _320
REMARK  131  A    between atoms: _320  and  _321
REMARK  132  A    between atoms: _320  and  _323
REMARK  133  A    between atoms: _323  and  _324
REMARK  134  A    between atoms: _330  and  _332
REMARK  135  A    between atoms: _332  and  _333
REMARK  136  A    between atoms: _332  and  _335
REMARK  137  A    between atoms: _335  and  _336
REMARK  138  A    between atoms: _339  and  _341
REMARK  139  A    between atoms: _341  and  _342
REMARK  140  A    between atoms: _341  and  _344
REMARK  141  A    between atoms: _344  and  _345
REMARK  142  A    between atoms: _345  and  _346
REMARK  143  A    between atoms: _349  and  _351
REMARK  144  A    between atoms: _351  and  _352
REMARK  145  A    between atoms: _351  and  _354
REMARK  146  A    between atoms: _354  and  _355
REMARK  147  A    between atoms: _358  and  _360
REMARK  148  A    between atoms: _360  and  _361
REMARK  149  A    between atoms: _360  and  _363
REMARK  150  A    between atoms: _363  and  _364
REMARK  151  A    between atoms: _367  and  _369
REMARK  152  A    between atoms: _369  and  _370
REMARK  153  A    between atoms: _372  and  _374
REMARK  154  A    between atoms: _374  and  _375
REMARK  155  A    between atoms: _374  and  _377
REMARK  156  A    between atoms: _380  and  _382
REMARK  157  A    between atoms: _382  and  _383
REMARK  158  A    between atoms: _382  and  _385
REMARK  159  A    between atoms: _385  and  _386
REMARK  160  A    between atoms: _388  and  _390
REMARK  161  A    between atoms: _390  and  _391
REMARK  162  A    between atoms: _390  and  _393
REMARK  163  A    between atoms: _393  and  _394
REMARK  164  A    between atoms: _394  and  _395
REMARK  165  A    between atoms: _397  and  _399
REMARK  166  A    between atoms: _399  and  _400
REMARK  167  A    between atoms: _399  and  _402
REMARK  168  A    between atoms: _402  and  _403
REMARK  169  A    between atoms: _408  and  _409
REMARK  170  A    between atoms: _411  and  _413
REMARK  171  A    between atoms: _413  and  _414
REMARK  172  A    between atoms: _413  and  _416
REMARK  173  A    between atoms: _416  and  _417
REMARK  174  A    between atoms: _420  and  _422
REMARK  175  A    between atoms: _422  and  _423
REMARK  176  A    between atoms: _422  and  _425
REMARK  177  A    between atoms: _425  and  _426
REMARK  178  A    between atoms: _428  and  _430
REMARK  179  A    between atoms: _430  and  _431
REMARK  180  A    between atoms: _430  and  _433
REMARK  181  A    between atoms: _433  and  _434
REMARK  182  A    between atoms: _437  and  _439
REMARK  183  A    between atoms: _439  and  _440
REMARK  184  A    between atoms: _439  and  _442
REMARK  185  A    between atoms: _442  and  _443
REMARK  186  A    between atoms: _448  and  _449
REMARK  187  A    between atoms: _451  and  _453
REMARK  188  A    between atoms: _453  and  _454
REMARK  189  A    between atoms: _453  and  _456
REMARK  190  A    between atoms: _456  and  _457
REMARK  191  A    between atoms: _459  and  _461
REMARK  192  A    between atoms: _461  and  _462
REMARK  193  A    between atoms: _461  and  _464
REMARK  194  A    between atoms: _464  and  _465
REMARK  195  A    between atoms: _471  and  _473
REMARK  196  A    between atoms: _473  and  _474
REMARK  197  A    between atoms: _473  and  _476
REMARK  198  A    between atoms: _476  and  _477
REMARK  199  A    between atoms: _477  and  _478
REMARK  200  A    between atoms: _478  and  _479
REMARK  201  A    between atoms: _488  and  _490
REMARK  202  A    between atoms: _490  and  _491
REMARK  203  A    between atoms: _490  and  _493
REMARK  204  A    between atoms: _496  and  _498
REMARK  205  A    between atoms: _498  and  _499
REMARK  206  A    between atoms: _501  and  _503
REMARK  207  A    between atoms: _503  and  _504
REMARK  208  A    between atoms: _503  and  _506
REMARK  209  A    between atoms: _506  and  _507
REMARK  210  A    between atoms: _510  and  _512
REMARK  211  A    between atoms: _512  and  _513
REMARK  212  A    between atoms: _512  and  _515
REMARK  213  A    between atoms: _515  and  _516
REMARK  214  A    between atoms: _516  and  _517
REMARK  215  A    between atoms: _519  and  _521
REMARK  216  A    between atoms: _521  and  _522
REMARK  217  A    between atoms: _521  and  _524
REMARK  218  A    between atoms: _524  and  _525
REMARK  219  A    between atoms: _531  and  _533
REMARK  220  A    between atoms: _533  and  _534
REMARK  221  A    between atoms: _533  and  _536
REMARK  222  A    between atoms: _536  and  _537
REMARK  223  A    between atoms: _542  and  _544
REMARK  224  A    between atoms: _544  and  _545
REMARK  225  A    between atoms: _544  and  _547
REMARK  226  A    between atoms: _547  and  _548
REMARK  227  A    between atoms: _558  and  _560
REMARK  228  A    between atoms: _560  and  _561
REMARK  229  A    between atoms: _560  and  _563
REMARK  230  A    between atoms: _566  and  _568
REMARK  231  A    between atoms: _568  and  _569
REMARK  232  A    between atoms: _568  and  _571
REMARK  233  A    between atoms: _571  and  _572
REMARK  234  A    between atoms: _575  and  _577
REMARK  235  A    between atoms: _577  and  _578
REMARK  236  A    between atoms: _577  and  _580
REMARK  237  A    between atoms: _580  and  _581
REMARK  238  A    between atoms: _581  and  _582
REMARK  239  A    between atoms: _584  and  _586
REMARK  240  A    between atoms: _586  and  _587
REMARK  241  A    between atoms: _586  and  _589
REMARK  242  A    between atoms: _589  and  _590
REMARK  243  A    between atoms: _593  and  _595
REMARK  244  A    between atoms: _595  and  _596
REMARK  245  A    between atoms: _595  and  _598
REMARK  246  A    between atoms: _598  and  _599
REMARK  247  A    between atoms: _602  and  _604
REMARK  248  A    between atoms: _604  and  _605
REMARK  249  A    between atoms: _607  and  _609
REMARK  250  A    between atoms: _609  and  _610
REMARK  251  A    between atoms: _609  and  _612
REMARK  252  A    between atoms: _612  and  _613
REMARK  253  A    between atoms: _615  and  _617
REMARK  254  A    between atoms: _617  and  _618
REMARK  255  A    between atoms: _617  and  _620
REMARK  256  A    between atoms: _620  and  _621
REMARK  257  A    between atoms: _631  and  _633
REMARK  258  A    between atoms: _633  and  _634
REMARK  259  A    between atoms: _633  and  _636
REMARK  260  A    between atoms: _636  and  _637
REMARK  261  A    between atoms: _639  and  _641
REMARK  262  A    between atoms: _641  and  _642
REMARK  263  A    between atoms: _641  and  _644
REMARK  264  A    between atoms: _644  and  _645
REMARK  265  A    between atoms: _648  and  _650
REMARK  266  A    between atoms: _650  and  _651
REMARK  267  A    between atoms: _654  and  _656
REMARK  268  A    between atoms: _656  and  _657
REMARK  269  A    between atoms: _656  and  _659
REMARK  270  A    between atoms: _659  and  _660
REMARK  271  A    between atoms: _662  and  _664
REMARK  272  A    between atoms: _664  and  _665
REMARK  273  A    between atoms: _664  and  _667
REMARK  274  A    between atoms: _667  and  _668
REMARK  275  A    between atoms: _668  and  _669
REMARK  276  A    between atoms: _673  and  _674
REMARK  277  A    between atoms: _679  and  _681
REMARK  278  A    between atoms: _681  and  _682
REMARK  279  A    between atoms: _681  and  _684
REMARK  280  A    between atoms: _684  and  _685
REMARK  281  A    between atoms: _687  and  _689
REMARK  282  A    between atoms: _689  and  _690
REMARK  283  A    between atoms: _689  and  _692
REMARK  284  A    between atoms: _692  and  _693
REMARK  285  A    between atoms: _693  and  _694
REMARK  286  A    between atoms: _699  and  _701
REMARK  287  A    between atoms: _701  and  _702
REMARK  288  A    between atoms: _701  and  _704
REMARK  289  A    between atoms: _704  and  _705
REMARK  290  A    between atoms: _705  and  _706
REMARK  291  A    between atoms: _711  and  _713
REMARK  292  A    between atoms: _713  and  _714
REMARK  293  A    between atoms: _713  and  _716
REMARK  294  A    between atoms: _716  and  _717
REMARK  295  A    between atoms: _720  and  _722
REMARK  296  A    between atoms: _722  and  _723
REMARK  297  A    between atoms: _722  and  _725
REMARK  298  A    between atoms: _725  and  _726
REMARK  299  A    between atoms: _729  and  _731
REMARK  300  A    between atoms: _731  and  _732
REMARK  301  A    between atoms: _731  and  _734
REMARK  302  A    between atoms: _734  and  _735
REMARK  303  A    between atoms: _741  and  _743
REMARK  304  A    between atoms: _743  and  _744
REMARK  305  A    between atoms: _743  and  _746
REMARK  306  A    between atoms: _746  and  _747
REMARK  307  A    between atoms: _752  and  _753
REMARK  308  A    between atoms: _755  and  _757
REMARK  309  A    between atoms: _757  and  _758
REMARK  310  A    between atoms: _757  and  _760
REMARK  311  A    between atoms: _760  and  _761
REMARK  312  A    between atoms: _767  and  _769
REMARK  313  A    between atoms: _769  and  _770
REMARK  314  A    between atoms: _769  and  _772
REMARK  315  A    between atoms: _772  and  _773
REMARK  316  A    between atoms: _778  and  _780
REMARK  317  A    between atoms: _780  and  _781
REMARK  318  A    between atoms: _780  and  _783
REMARK  319  A    between atoms: _783  and  _784
REMARK  320  A    between atoms: _784  and  _785
REMARK                            x       y       z     vdW  Elec       q    Type
REMARK                         _______ _______ _______ _____ _____    ______ ____
ROOT
ATOM      1  O   HOH     1      18.436  40.495  16.119  0.00  0.00    +0.000 OA
ENDROOT
TORSDOF 0
REMARK  Name = ../refined-set-2016/3drf/3drf_pocket.pdb
REMARK  320 active torsions:
REMARK  status: ('A' for Active; 'I' for Inactive)
REMARK    1  A    between atoms: _1  and  _3
REMARK    2  A    between atoms: _3  and  _4
REMARK    3  A    between atoms: _3  and  _6
REMARK    4  A    between atoms: _6  and  _7
REMARK    5  A    between atoms: _12  and  _13
REMARK    6  A    between atoms: _15  and  _17
REMARK    7  A    between atoms: _17  and  _18
REMARK    8  A    between atoms: _17  and  _20
REMARK    9  A    between atoms: _20  and  _21
REMARK   10  A    between atoms: _21  and  _22
REMARK   11  A    between atoms: _27  and  _29
REMARK   12  A    between atoms: _29  and  _30
REMARK   13  A    between atoms: _29  and  _32
REMARK   14  A    between atoms: _32  and  _33
REMARK   15  A    between atoms: _35  and  _37
REMARK   16  A    between atoms: _37  and  _38
REMARK   17  A    between atoms: _37  and  _40
REMARK   18  A    between atoms: _40  and  _41
REMARK   19  A    between atoms: _44  and  _46
REMARK   20  A    between atoms: _46  and  _47
REMARK   21  A    between atoms: _46  and  _49
REMARK   22  A    between atoms: _49  and  _50
REMARK   23  A    between atoms: _52  and  _54
REMARK   24  A    between atoms: _54  and  _55
REMARK   25  A    between atoms: _54  and  _57
REMARK   26  A    between atoms: _57  and  _58
REMARK   27  A    between atoms: _60  and  _62
REMARK   28  A    between atoms: _62  and  _63
REMARK   29  A    between atoms: _65  and  _67
REMARK   30  A    between atoms: _67  and  _68
REMARK   31  A    between atoms: _67  and  _70
REMARK   32  A    between atoms: _70  and  _71
REMARK   33  A    between atoms: _73  and  _75
REMARK   34  A    between atoms: _75  and  _76
REMARK   35  A    between atoms: _75  and  _78
REMARK   36  A    between atoms: _78  and  _79
REMARK   37  A    between atoms: _84  and  _86
REMARK   38  A    between atoms: _86  and  _87
REMARK   39  A    between atoms: _86  and  _89
REMARK   40  A    between atoms: _89  and  _90
REMARK   41  A    between atoms: _93  and  _95
REMARK   42  A    between atoms: _95  and  _96
REMARK   43  A    between atoms: _99  and  _101
REMARK   44  A    between atoms: _101  and  _102
REMARK   45  A    between atoms: _101  and  _104
REMARK   46  A    between atoms: _104  and  _105
REMARK   47  A    between atoms: _108  and  _110
REMARK   48  A    between atoms: _110  and  _111
REMARK   49  A    between atoms: _110  and  _113
REMARK   50  A    between atoms: _113  and  _114
REMARK   51  A    between atoms: _120  and  _122
REMARK   52  A    between atoms: _122  and  _123
REMARK   53  A    between atoms: _126  and  _128
REMARK   54  A    between atoms: _128  and  _129
REMARK   55  A    between atoms: _128  and  _131
REMARK   56  A    between atoms: _131  and  _132
REMARK   57  A    between atoms: _135  and  _137
REMARK   58  A    between atoms: _137  and  _138
REMARK   59  A    between atoms: _140  and  _142
REMARK   60  A    between atoms: _142  and  _143
REMARK   61  A    between atoms: _142  and  _145
REMARK   62  A    between atoms: _145  and  _146
REMARK   63  A    between atoms: _146  and  _147
REMARK   64  A    between atoms: _152  and  _154
REMARK   65  A    between atoms: _154  and  _155
REMARK   66  A    between atoms: _157  and  _159
REMARK   67  A    between atoms: _159  and  _160
REMARK   68  A    between atoms: _159  and  _162
REMARK   69  A    between atoms: _162  and  _163
REMARK   70  A    between atoms: _166  and  _168
REMARK   71  A    between atoms: _168  and  _169
REMARK   72  A    between atoms: _168  and  _171
REMARK   73  A    between atoms: _171  and  _172
REMARK   74  A    between atoms: _178  and  _180
REMARK   75  A    between atoms: _180  and  _181
REMARK   76  A    between atoms: _180  and  _183
REMARK   77  A    between atoms: _183  and  _184
REMARK   78  A    between atoms: _187  and  _189
REMARK   79  A    between atoms: _189  and  _190
REMARK   80  A    between atoms: _189  and  _192
REMARK   81  A    between atoms: _192  and  _193
REMARK   82  A    between atoms: _199  and  _201
REMARK   83  A    between atoms: _201  and  _202
REMARK   84  A    between atoms: _201  and  _204
REMARK   85  A    between atoms: _204  and  _205
REMARK   86  A    between atoms: _211  and  _213
REMARK   87  A    between atoms: _213  and  _214
REMARK   88  A    between atoms: _213  and  _216
REMARK   89  A    between atoms: _216  and  _217
REMARK   90  A    between atoms: _220  and  _222
REMARK   91  A    between atoms: _222  and  _223
REMARK   92  A    between atoms: _222  and  _225
REMARK   93  A    between atoms: _225  and  _226
REMARK   94  A    between atoms: _229  and  _231
REMARK   95  A    between atoms: _231  and  _232
REMARK   96  A    between atoms: _231  and  _234
REMARK   97  A    between atoms: _234  and  _235
REMARK   98  A    between atoms: _235  and  _236
REMARK   99  A    between atoms: _236  and  _237
REMARK  100  A    between atoms: _246  and  _248
REMARK  101  A    between atoms: _248  and  _249
REMARK  102  A    between atoms: _248  and  _251
REMARK  103  A    between atoms: _251  and  _252
REMARK  104  A    between atoms: _255  and  _257
REMARK  105  A    between atoms: _257  and  _258
REMARK  106  A    between atoms: _257  and  _260
REMARK  107  A    between atoms: _260  and  _261
REMARK  108  A    between atoms: _263  and  _265
REMARK  109  A    between atoms: _265  and  _266
REMARK  110  A    between atoms: _265  and  _268
REMARK  111  A    between atoms: _268  and  _269
REMARK  112  A    between atoms: _269  and  _270
REMARK  113  A    between atoms: _275  and  _277
REMARK  114  A    between atoms: _277  and  _278
REMARK  115  A    between atoms: _277  and  _280
REMARK  116  A    between atoms: _280  and  _281
REMARK  117  A    between atoms: _283  and  _285
REMARK  118  A    between atoms: _285  and  _286
REMARK  119  A    between atoms: _288  and  _290
REMARK  120  A    between atoms: _290  and  _291
REMARK  121  A    between atoms: _290  and  _293
REMARK  122  A    between atoms: _293  and  _294
REMARK  123  A    between atoms: _299  and  _301
REMARK  124  A    between atoms: _301  and  _302
REMARK  125  A    between atoms: _304  and  _306
REMARK  126  A    between atoms: _306  and  _307
REMARK  127  A    between atoms: _306  and  _309
REMARK  128  A    between atoms: _309  and  _310
REMARK  129  A    between atoms: _315  and  _316
REMARK  130  A    between atoms: _318  and  _320
REMARK  131  A    between atoms: _320  and  _321
REMARK  132  A    between atoms: _320  and  _323
REMARK  133  A    between atoms: _323  and  _324
REMARK  134  A    between atoms: _330  and  _332
REMARK  135  A    between atoms: _332  and  _333
REMARK  136  A    between atoms: _332  and  _335
REMARK  137  A    between atoms: _335  and  _336
REMARK  138  A    between atoms: _339  and  _341
REMARK  139  A    between atoms: _341  and  _342
REMARK  140  A    between atoms: _341  and  _344
REMARK  141  A    between atoms: _344  and  _345
REMARK  142  A    between atoms: _345  and  _346
REMARK  143  A    between atoms: _349  and  _351
REMARK  144  A    between atoms: _351  and  _352
REMARK  145  A    between atoms: _351  and  _354
REMARK  146  A    between atoms: _354  and  _355
REMARK  147  A    between atoms: _358  and  _360
REMARK  148  A    between atoms: _360  and  _361
REMARK  149  A    between atoms: _360  and  _363
REMARK  150  A    between atoms: _363  and  _364
REMARK  151  A    between atoms: _367  and  _369
REMARK  152  A    between atoms: _369  and  _370
REMARK  153  A    between atoms: _372  and  _374
REMARK  154  A    between atoms: _374  and  _375
REMARK  155  A    between atoms: _374  and  _377
REMARK  156  A    between atoms: _380  and  _382
REMARK  157  A    between atoms: _382  and  _383
REMARK  158  A    between atoms: _382  and  _385
REMARK  159  A    between atoms: _385  and  _386
REMARK  160  A    between atoms: _388  and  _390
REMARK  161  A    between atoms: _390  and  _391
REMARK  162  A    between atoms: _390  and  _393
REMARK  163  A    between atoms: _393  and  _394
REMARK  164  A    between atoms: _394  and  _395
REMARK  165  A    between atoms: _397  and  _399
REMARK  166  A    between atoms: _399  and  _400
REMARK  167  A    between atoms: _399  and  _402
REMARK  168  A    between atoms: _402  and  _403
REMARK  169  A    between atoms: _408  and  _409
REMARK  170  A    between atoms: _411  and  _413
REMARK  171  A    between atoms: _413  and  _414
REMARK  172  A    between atoms: _413  and  _416
REMARK  173  A    between atoms: _416  and  _417
REMARK  174  A    between atoms: _420  and  _422
REMARK  175  A    between atoms: _422  and  _423
REMARK  176  A    between atoms: _422  and  _425
REMARK  177  A    between atoms: _425  and  _426
REMARK  178  A    between atoms: _428  and  _430
REMARK  179  A    between atoms: _430  and  _431
REMARK  180  A    between atoms: _430  and  _433
REMARK  181  A    between atoms: _433  and  _434
REMARK  182  A    between atoms: _437  and  _439
REMARK  183  A    between atoms: _439  and  _440
REMARK  184  A    between atoms: _439  and  _442
REMARK  185  A    between atoms: _442  and  _443
REMARK  186  A    between atoms: _448  and  _449
REMARK  187  A    between atoms: _451  and  _453
REMARK  188  A    between atoms: _453  and  _454
REMARK  189  A    between atoms: _453  and  _456
REMARK  190  A    between atoms: _456  and  _457
REMARK  191  A    between atoms: _459  and  _461
REMARK  192  A    between atoms: _461  and  _462
REMARK  193  A    between atoms: _461  and  _464
REMARK  194  A    between atoms: _464  and  _465
REMARK  195  A    between atoms: _471  and  _473
REMARK  196  A    between atoms: _473  and  _474
REMARK  197  A    between atoms: _473  and  _476
REMARK  198  A    between atoms: _476  and  _477
REMARK  199  A    between atoms: _477  and  _478
REMARK  200  A    between atoms: _478  and  _479
REMARK  201  A    between atoms: _488  and  _490
REMARK  202  A    between atoms: _490  and  _491
REMARK  203  A    between atoms: _490  and  _493
REMARK  204  A    between atoms: _496  and  _498
REMARK  205  A    between atoms: _498  and  _499
REMARK  206  A    between atoms: _501  and  _503
REMARK  207  A    between atoms: _503  and  _504
REMARK  208  A    between atoms: _503  and  _506
REMARK  209  A    between atoms: _506  and  _507
REMARK  210  A    between atoms: _510  and  _512
REMARK  211  A    between atoms: _512  and  _513
REMARK  212  A    between atoms: _512  and  _515
REMARK  213  A    between atoms: _515  and  _516
REMARK  214  A    between atoms: _516  and  _517
REMARK  215  A    between atoms: _519  and  _521
REMARK  216  A    between atoms: _521  and  _522
REMARK  217  A    between atoms: _521  and  _524
REMARK  218  A    between atoms: _524  and  _525
REMARK  219  A    between atoms: _531  and  _533
REMARK  220  A    between atoms: _533  and  _534
REMARK  221  A    between atoms: _533  and  _536
REMARK  222  A    between atoms: _536  and  _537
REMARK  223  A    between atoms: _542  and  _544
REMARK  224  A    between atoms: _544  and  _545
REMARK  225  A    between atoms: _544  and  _547
REMARK  226  A    between atoms: _547  and  _548
REMARK  227  A    between atoms: _558  and  _560
REMARK  228  A    between atoms: _560  and  _561
REMARK  229  A    between atoms: _560  and  _563
REMARK  230  A    between atoms: _566  and  _568
REMARK  231  A    between atoms: _568  and  _569
REMARK  232  A    between atoms: _568  and  _571
REMARK  233  A    between atoms: _571  and  _572
REMARK  234  A    between atoms: _575  and  _577
REMARK  235  A    between atoms: _577  and  _578
REMARK  236  A    between atoms: _577  and  _580
REMARK  237  A    between atoms: _580  and  _581
REMARK  238  A    between atoms: _581  and  _582
REMARK  239  A    between atoms: _584  and  _586
REMARK  240  A    between atoms: _586  and  _587
REMARK  241  A    between atoms: _586  and  _589
REMARK  242  A    between atoms: _589  and  _590
REMARK  243  A    between atoms: _593  and  _595
REMARK  244  A    between atoms: _595  and  _596
REMARK  245  A    between atoms: _595  and  _598
REMARK  246  A    between atoms: _598  and  _599
REMARK  247  A    between atoms: _602  and  _604
REMARK  248  A    between atoms: _604  and  _605
REMARK  249  A    between atoms: _607  and  _609
REMARK  250  A    between atoms: _609  and  _610
REMARK  251  A    between atoms: _609  and  _612
REMARK  252  A    between atoms: _612  and  _613
REMARK  253  A    between atoms: _615  and  _617
REMARK  254  A    between atoms: _617  and  _618
REMARK  255  A    between atoms: _617  and  _620
REMARK  256  A    between atoms: _620  and  _621
REMARK  257  A    between atoms: _631  and  _633
REMARK  258  A    between atoms: _633  and  _634
REMARK  259  A    between atoms: _633  and  _636
REMARK  260  A    between atoms: _636  and  _637
REMARK  261  A    between atoms: _639  and  _641
REMARK  262  A    between atoms: _641  and  _642
REMARK  263  A    between atoms: _641  and  _644
REMARK  264  A    between atoms: _644  and  _645
REMARK  265  A    between atoms: _648  and  _650
REMARK  266  A    between atoms: _650  and  _651
REMARK  267  A    between atoms: _654  and  _656
REMARK  268  A    between atoms: _656  and  _657
REMARK  269  A    between atoms: _656  and  _659
REMARK  270  A    between atoms: _659  and  _660
REMARK  271  A    between atoms: _662  and  _664
REMARK  272  A    between atoms: _664  and  _665
REMARK  273  A    between atoms: _664  and  _667
REMARK  274  A    between atoms: _667  and  _668
REMARK  275  A    between atoms: _668  and  _669
REMARK  276  A    between atoms: _673  and  _674
REMARK  277  A    between atoms: _679  and  _681
REMARK  278  A    between atoms: _681  and  _682
REMARK  279  A    between atoms: _681  and  _684
REMARK  280  A    between atoms: _684  and  _685
REMARK  281  A    between atoms: _687  and  _689
REMARK  282  A    between atoms: _689  and  _690
REMARK  283  A    between atoms: _689  and  _692
REMARK  284  A    between atoms: _692  and  _693
REMARK  285  A    between atoms: _693  and  _694
REMARK  286  A    between atoms: _699  and  _701
REMARK  287  A    between atoms: _701  and  _702
REMARK  288  A    between atoms: _701  and  _704
REMARK  289  A    between atoms: _704  and  _705
REMARK  290  A    between atoms: _705  and  _706
REMARK  291  A    between atoms: _711  and  _713
REMARK  292  A    between atoms: _713  and  _714
REMARK  293  A    between atoms: _713  and  _716
REMARK  294  A    between atoms: _716  and  _717
REMARK  295  A    between atoms: _720  and  _722
REMARK  296  A    between atoms: _722  and  _723
REMARK  297  A    between atoms: _722  and  _725
REMARK  298  A    between atoms: _725  and  _726
REMARK  299  A    between atoms: _729  and  _731
REMARK  300  A    between atoms: _731  and  _732
REMARK  301  A    between atoms: _731  and  _734
REMARK  302  A    between atoms: _734  and  _735
REMARK  303  A    between atoms: _741  and  _743
REMARK  304  A    between atoms: _743  and  _744
REMARK  305  A    between atoms: _743  and  _746
REMARK  306  A    between atoms: _746  and  _747
REMARK  307  A    between atoms: _752  and  _753
REMARK  308  A    between atoms: _755  and  _757
REMARK  309  A    between atoms: _757  and  _758
REMARK  310  A    between atoms: _757  and  _760
REMARK  311  A    between atoms: _760  and  _761
REMARK  312  A    between atoms: _767  and  _769
REMARK  313  A    between atoms: _769  and  _770
REMARK  314  A    between atoms: _769  and  _772
REMARK  315  A    between atoms: _772  and  _773
REMARK  316  A    between atoms: _778  and  _780
REMARK  317  A    between atoms: _780  and  _781
REMARK  318  A    between atoms: _780  and  _783
REMARK  319  A    between atoms: _783  and  _784
REMARK  320  A    between atoms: _784  and  _785
REMARK                            x       y       z     vdW  Elec       q    Type
REMARK                         _______ _______ _______ _____ _____    ______ ____
ROOT
ATOM      1  O   HOH     1      -4.481  44.378  29.777  0.00  0.00    +0.000 OA
ENDROOT
TORSDOF 0
REMARK  Name = ../refined-set-2016/3drf/3drf_pocket.pdb
REMARK  320 active torsions:
REMARK  status: ('A' for Active; 'I' for Inactive)
REMARK    1  A    between atoms: _1  and  _3
REMARK    2  A    between atoms: _3  and  _4
REMARK    3  A    between atoms: _3  and  _6
REMARK    4  A    between atoms: _6  and  _7
REMARK    5  A    between atoms: _12  and  _13
REMARK    6  A    between atoms: _15  and  _17
REMARK    7  A    between atoms: _17  and  _18
REMARK    8  A    between atoms: _17  and  _20
REMARK    9  A    between atoms: _20  and  _21
REMARK   10  A    between atoms: _21  and  _22
REMARK   11  A    between atoms: _27  and  _29
REMARK   12  A    between atoms: _29  and  _30
REMARK   13  A    between atoms: _29  and  _32
REMARK   14  A    between atoms: _32  and  _33
REMARK   15  A    between atoms: _35  and  _37
REMARK   16  A    between atoms: _37  and  _38
REMARK   17  A    between atoms: _37  and  _40
REMARK   18  A    between atoms: _40  and  _41
REMARK   19  A    between atoms: _44  and  _46
REMARK   20  A    between atoms: _46  and  _47
REMARK   21  A    between atoms: _46  and  _49
REMARK   22  A    between atoms: _49  and  _50
REMARK   23  A    between atoms: _52  and  _54
REMARK   24  A    between atoms: _54  and  _55
REMARK   25  A    between atoms: _54  and  _57
REMARK   26  A    between atoms: _57  and  _58
REMARK   27  A    between atoms: _60  and  _62
REMARK   28  A    between atoms: _62  and  _63
REMARK   29  A    between atoms: _65  and  _67
REMARK   30  A    between atoms: _67  and  _68
REMARK   31  A    between atoms: _67  and  _70
REMARK   32  A    between atoms: _70  and  _71
REMARK   33  A    between atoms: _73  and  _75
REMARK   34  A    between atoms: _75  and  _76
REMARK   35  A    between atoms: _75  and  _78
REMARK   36  A    between atoms: _78  and  _79
REMARK   37  A    between atoms: _84  and  _86
REMARK   38  A    between atoms: _86  and  _87
REMARK   39  A    between atoms: _86  and  _89
REMARK   40  A    between atoms: _89  and  _90
REMARK   41  A    between atoms: _93  and  _95
REMARK   42  A    between atoms: _95  and  _96
REMARK   43  A    between atoms: _99  and  _101
REMARK   44  A    between atoms: _101  and  _102
REMARK   45  A    between atoms: _101  and  _104
REMARK   46  A    between atoms: _104  and  _105
REMARK   47  A    between atoms: _108  and  _110
REMARK   48  A    between atoms: _110  and  _111
REMARK   49  A    between atoms: _110  and  _113
REMARK   50  A    between atoms: _113  and  _114
REMARK   51  A    between atoms: _120  and  _122
REMARK   52  A    between atoms: _122  and  _123
REMARK   53  A    between atoms: _126  and  _128
REMARK   54  A    between atoms: _128  and  _129
REMARK   55  A    between atoms: _128  and  _131
REMARK   56  A    between atoms: _131  and  _132
REMARK   57  A    between atoms: _135  and  _137
REMARK   58  A    between atoms: _137  and  _138
REMARK   59  A    between atoms: _140  and  _142
REMARK   60  A    between atoms: _142  and  _143
REMARK   61  A    between atoms: _142  and  _145
REMARK   62  A    between atoms: _145  and  _146
REMARK   63  A    between atoms: _146  and  _147
REMARK   64  A    between atoms: _152  and  _154
REMARK   65  A    between atoms: _154  and  _155
REMARK   66  A    between atoms: _157  and  _159
REMARK   67  A    between atoms: _159  and  _160
REMARK   68  A    between atoms: _159  and  _162
REMARK   69  A    between atoms: _162  and  _163
REMARK   70  A    between atoms: _166  and  _168
REMARK   71  A    between atoms: _168  and  _169
REMARK   72  A    between atoms: _168  and  _171
REMARK   73  A    between atoms: _171  and  _172
REMARK   74  A    between atoms: _178  and  _180
REMARK   75  A    between atoms: _180  and  _181
REMARK   76  A    between atoms: _180  and  _183
REMARK   77  A    between atoms: _183  and  _184
REMARK   78  A    between atoms: _187  and  _189
REMARK   79  A    between atoms: _189  and  _190
REMARK   80  A    between atoms: _189  and  _192
REMARK   81  A    between atoms: _192  and  _193
REMARK   82  A    between atoms: _199  and  _201
REMARK   83  A    between atoms: _201  and  _202
REMARK   84  A    between atoms: _201  and  _204
REMARK   85  A    between atoms: _204  and  _205
REMARK   86  A    between atoms: _211  and  _213
REMARK   87  A    between atoms: _213  and  _214
REMARK   88  A    between atoms: _213  and  _216
REMARK   89  A    between atoms: _216  and  _217
REMARK   90  A    between atoms: _220  and  _222
REMARK   91  A    between atoms: _222  and  _223
REMARK   92  A    between atoms: _222  and  _225
REMARK   93  A    between atoms: _225  and  _226
REMARK   94  A    between atoms: _229  and  _231
REMARK   95  A    between atoms: _231  and  _232
REMARK   96  A    between atoms: _231  and  _234
REMARK   97  A    between atoms: _234  and  _235
REMARK   98  A    between atoms: _235  and  _236
REMARK   99  A    between atoms: _236  and  _237
REMARK  100  A    between atoms: _246  and  _248
REMARK  101  A    between atoms: _248  and  _249
REMARK  102  A    between atoms: _248  and  _251
REMARK  103  A    between atoms: _251  and  _252
REMARK  104  A    between atoms: _255  and  _257
REMARK  105  A    between atoms: _257  and  _258
REMARK  106  A    between atoms: _257  and  _260
REMARK  107  A    between atoms: _260  and  _261
REMARK  108  A    between atoms: _263  and  _265
REMARK  109  A    between atoms: _265  and  _266
REMARK  110  A    between atoms: _265  and  _268
REMARK  111  A    between atoms: _268  and  _269
REMARK  112  A    between atoms: _269  and  _270
REMARK  113  A    between atoms: _275  and  _277
REMARK  114  A    between atoms: _277  and  _278
REMARK  115  A    between atoms: _277  and  _280
REMARK  116  A    between atoms: _280  and  _281
REMARK  117  A    between atoms: _283  and  _285
REMARK  118  A    between atoms: _285  and  _286
REMARK  119  A    between atoms: _288  and  _290
REMARK  120  A    between atoms: _290  and  _291
REMARK  121  A    between atoms: _290  and  _293
REMARK  122  A    between atoms: _293  and  _294
REMARK  123  A    between atoms: _299  and  _301
REMARK  124  A    between atoms: _301  and  _302
REMARK  125  A    between atoms: _304  and  _306
REMARK  126  A    between atoms: _306  and  _307
REMARK  127  A    between atoms: _306  and  _309
REMARK  128  A    between atoms: _309  and  _310
REMARK  129  A    between atoms: _315  and  _316
REMARK  130  A    between atoms: _318  and  _320
REMARK  131  A    between atoms: _320  and  _321
REMARK  132  A    between atoms: _320  and  _323
REMARK  133  A    between atoms: _323  and  _324
REMARK  134  A    between atoms: _330  and  _332
REMARK  135  A    between atoms: _332  and  _333
REMARK  136  A    between atoms: _332  and  _335
REMARK  137  A    between atoms: _335  and  _336
REMARK  138  A    between atoms: _339  and  _341
REMARK  139  A    between atoms: _341  and  _342
REMARK  140  A    between atoms: _341  and  _344
REMARK  141  A    between atoms: _344  and  _345
REMARK  142  A    between atoms: _345  and  _346
REMARK  143  A    between atoms: _349  and  _351
REMARK  144  A    between atoms: _351  and  _352
REMARK  145  A    between atoms: _351  and  _354
REMARK  146  A    between atoms: _354  and  _355
REMARK  147  A    between atoms: _358  and  _360
REMARK  148  A    between atoms: _360  and  _361
REMARK  149  A    between atoms: _360  and  _363
REMARK  150  A    between atoms: _363  and  _364
REMARK  151  A    between atoms: _367  and  _369
REMARK  152  A    between atoms: _369  and  _370
REMARK  153  A    between atoms: _372  and  _374
REMARK  154  A    between atoms: _374  and  _375
REMARK  155  A    between atoms: _374  and  _377
REMARK  156  A    between atoms: _380  and  _382
REMARK  157  A    between atoms: _382  and  _383
REMARK  158  A    between atoms: _382  and  _385
REMARK  159  A    between atoms: _385  and  _386
REMARK  160  A    between atoms: _388  and  _390
REMARK  161  A    between atoms: _390  and  _391
REMARK  162  A    between atoms: _390  and  _393
REMARK  163  A    between atoms: _393  and  _394
REMARK  164  A    between atoms: _394  and  _395
REMARK  165  A    between atoms: _397  and  _399
REMARK  166  A    between atoms: _399  and  _400
REMARK  167  A    between atoms: _399  and  _402
REMARK  168  A    between atoms: _402  and  _403
REMARK  169  A    between atoms: _408  and  _409
REMARK  170  A    between atoms: _411  and  _413
REMARK  171  A    between atoms: _413  and  _414
REMARK  172  A    between atoms: _413  and  _416
REMARK  173  A    between atoms: _416  and  _417
REMARK  174  A    between atoms: _420  and  _422
REMARK  175  A    between atoms: _422  and  _423
REMARK  176  A    between atoms: _422  and  _425
REMARK  177  A    between atoms: _425  and  _426
REMARK  178  A    between atoms: _428  and  _430
REMARK  179  A    between atoms: _430  and  _431
REMARK  180  A    between atoms: _430  and  _433
REMARK  181  A    between atoms: _433  and  _434
REMARK  182  A    between atoms: _437  and  _439
REMARK  183  A    between atoms: _439  and  _440
REMARK  184  A    between atoms: _439  and  _442
REMARK  185  A    between atoms: _442  and  _443
REMARK  186  A    between atoms: _448  and  _449
REMARK  187  A    between atoms: _451  and  _453
REMARK  188  A    between atoms: _453  and  _454
REMARK  189  A    between atoms: _453  and  _456
REMARK  190  A    between atoms: _456  and  _457
REMARK  191  A    between atoms: _459  and  _461
REMARK  192  A    between atoms: _461  and  _462
REMARK  193  A    between atoms: _461  and  _464
REMARK  194  A    between atoms: _464  and  _465
REMARK  195  A    between atoms: _471  and  _473
REMARK  196  A    between atoms: _473  and  _474
REMARK  197  A    between atoms: _473  and  _476
REMARK  198  A    between atoms: _476  and  _477
REMARK  199  A    between atoms: _477  and  _478
REMARK  200  A    between atoms: _478  and  _479
REMARK  201  A    between atoms: _488  and  _490
REMARK  202  A    between atoms: _490  and  _491
REMARK  203  A    between atoms: _490  and  _493
REMARK  204  A    between atoms: _496  and  _498
REMARK  205  A    between atoms: _498  and  _499
REMARK  206  A    between atoms: _501  and  _503
REMARK  207  A    between atoms: _503  and  _504
REMARK  208  A    between atoms: _503  and  _506
REMARK  209  A    between atoms: _506  and  _507
REMARK  210  A    between atoms: _510  and  _512
REMARK  211  A    between atoms: _512  and  _513
REMARK  212  A    between atoms: _512  and  _515
REMARK  213  A    between atoms: _515  and  _516
REMARK  214  A    between atoms: _516  and  _517
REMARK  215  A    between atoms: _519  and  _521
REMARK  216  A    between atoms: _521  and  _522
REMARK  217  A    between atoms: _521  and  _524
REMARK  218  A    between atoms: _524  and  _525
REMARK  219  A    between atoms: _531  and  _533
REMARK  220  A    between atoms: _533  and  _534
REMARK  221  A    between atoms: _533  and  _536
REMARK  222  A    between atoms: _536  and  _537
REMARK  223  A    between atoms: _542  and  _544
REMARK  224  A    between atoms: _544  and  _545
REMARK  225  A    between atoms: _544  and  _547
REMARK  226  A    between atoms: _547  and  _548
REMARK  227  A    between atoms: _558  and  _560
REMARK  228  A    between atoms: _560  and  _561
REMARK  229  A    between atoms: _560  and  _563
REMARK  230  A    between atoms: _566  and  _568
REMARK  231  A    between atoms: _568  and  _569
REMARK  232  A    between atoms: _568  and  _571
REMARK  233  A    between atoms: _571  and  _572
REMARK  234  A    between atoms: _575  and  _577
REMARK  235  A    between atoms: _577  and  _578
REMARK  236  A    between atoms: _577  and  _580
REMARK  237  A    between atoms: _580  and  _581
REMARK  238  A    between atoms: _581  and  _582
REMARK  239  A    between atoms: _584  and  _586
REMARK  240  A    between atoms: _586  and  _587
REMARK  241  A    between atoms: _586  and  _589
REMARK  242  A    between atoms: _589  and  _590
REMARK  243  A    between atoms: _593  and  _595
REMARK  244  A    between atoms: _595  and  _596
REMARK  245  A    between atoms: _595  and  _598
REMARK  246  A    between atoms: _598  and  _599
REMARK  247  A    between atoms: _602  and  _604
REMARK  248  A    between atoms: _604  and  _605
REMARK  249  A    between atoms: _607  and  _609
REMARK  250  A    between atoms: _609  and  _610
REMARK  251  A    between atoms: _609  and  _612
REMARK  252  A    between atoms: _612  and  _613
REMARK  253  A    between atoms: _615  and  _617
REMARK  254  A    between atoms: _617  and  _618
REMARK  255  A    between atoms: _617  and  _620
REMARK  256  A    between atoms: _620  and  _621
REMARK  257  A    between atoms: _631  and  _633
REMARK  258  A    between atoms: _633  and  _634
REMARK  259  A    between atoms: _633  and  _636
REMARK  260  A    between atoms: _636  and  _637
REMARK  261  A    between atoms: _639  and  _641
REMARK  262  A    between atoms: _641  and  _642
REMARK  263  A    between atoms: _641  and  _644
REMARK  264  A    between atoms: _644  and  _645
REMARK  265  A    between atoms: _648  and  _650
REMARK  266  A    between atoms: _650  and  _651
REMARK  267  A    between atoms: _654  and  _656
REMARK  268  A    between atoms: _656  and  _657
REMARK  269  A    between atoms: _656  and  _659
REMARK  270  A    between atoms: _659  and  _660
REMARK  271  A    between atoms: _662  and  _664
REMARK  272  A    between atoms: _664  and  _665
REMARK  273  A    between atoms: _664  and  _667
REMARK  274  A    between atoms: _667  and  _668
REMARK  275  A    between atoms: _668  and  _669
REMARK  276  A    between atoms: _673  and  _674
REMARK  277  A    between atoms: _679  and  _681
REMARK  278  A    between atoms: _681  and  _682
REMARK  279  A    between atoms: _681  and  _684
REMARK  280  A    between atoms: _684  and  _685
REMARK  281  A    between atoms: _687  and  _689
REMARK  282  A    between atoms: _689  and  _690
REMARK  283  A    between atoms: _689  and  _692
REMARK  284  A    between atoms: _692  and  _693
REMARK  285  A    between atoms: _693  and  _694
REMARK  286  A    between atoms: _699  and  _701
REMARK  287  A    between atoms: _701  and  _702
REMARK  288  A    between atoms: _701  and  _704
REMARK  289  A    between atoms: _704  and  _705
REMARK  290  A    between atoms: _705  and  _706
REMARK  291  A    between atoms: _711  and  _713
REMARK  292  A    between atoms: _713  and  _714
REMARK  293  A    between atoms: _713  and  _716
REMARK  294  A    between atoms: _716  and  _717
REMARK  295  A    between atoms: _720  and  _722
REMARK  296  A    between atoms: _722  and  _723
REMARK  297  A    between atoms: _722  and  _725
REMARK  298  A    between atoms: _725  and  _726
REMARK  299  A    between atoms: _729  and  _731
REMARK  300  A    between atoms: _731  and  _732
REMARK  301  A    between atoms: _731  and  _734
REMARK  302  A    between atoms: _734  and  _735
REMARK  303  A    between atoms: _741  and  _743
REMARK  304  A    between atoms: _743  and  _744
REMARK  305  A    between atoms: _743  and  _746
REMARK  306  A    between atoms: _746  and  _747
REMARK  307  A    between atoms: _752  and  _753
REMARK  308  A    between atoms: _755  and  _757
REMARK  309  A    between atoms: _757  and  _758
REMARK  310  A    between atoms: _757  and  _760
REMARK  311  A    between atoms: _760  and  _761
REMARK  312  A    between atoms: _767  and  _769
REMARK  313  A    between atoms: _769  and  _770
REMARK  314  A    between atoms: _769  and  _772
REMARK  315  A    between atoms: _772  and  _773
REMARK  316  A    between atoms: _778  and  _780
REMARK  317  A    between atoms: _780  and  _781
REMARK  318  A    between atoms: _780  and  _783
REMARK  319  A    between atoms: _783  and  _784
REMARK  320  A    between atoms: _784  and  _785
REMARK                            x       y       z     vdW  Elec       q    Type
REMARK                         _______ _______ _______ _____ _____    ______ ____
ROOT
ATOM      1  O   HOH     1      -1.689  44.679  24.074  0.00  0.00    +0.000 OA
ENDROOT
TORSDOF 0
REMARK  Name = ../refined-set-2016/3drf/3drf_pocket.pdb
REMARK  320 active torsions:
REMARK  status: ('A' for Active; 'I' for Inactive)
REMARK    1  A    between atoms: _1  and  _3
REMARK    2  A    between atoms: _3  and  _4
REMARK    3  A    between atoms: _3  and  _6
REMARK    4  A    between atoms: _6  and  _7
REMARK    5  A    between atoms: _12  and  _13
REMARK    6  A    between atoms: _15  and  _17
REMARK    7  A    between atoms: _17  and  _18
REMARK    8  A    between atoms: _17  and  _20
REMARK    9  A    between atoms: _20  and  _21
REMARK   10  A    between atoms: _21  and  _22
REMARK   11  A    between atoms: _27  and  _29
REMARK   12  A    between atoms: _29  and  _30
REMARK   13  A    between atoms: _29  and  _32
REMARK   14  A    between atoms: _32  and  _33
REMARK   15  A    between atoms: _35  and  _37
REMARK   16  A    between atoms: _37  and  _38
REMARK   17  A    between atoms: _37  and  _40
REMARK   18  A    between atoms: _40  and  _41
REMARK   19  A    between atoms: _44  and  _46
REMARK   20  A    between atoms: _46  and  _47
REMARK   21  A    between atoms: _46  and  _49
REMARK   22  A    between atoms: _49  and  _50
REMARK   23  A    between atoms: _52  and  _54
REMARK   24  A    between atoms: _54  and  _55
REMARK   25  A    between atoms: _54  and  _57
REMARK   26  A    between atoms: _57  and  _58
REMARK   27  A    between atoms: _60  and  _62
REMARK   28  A    between atoms: _62  and  _63
REMARK   29  A    between atoms: _65  and  _67
REMARK   30  A    between atoms: _67  and  _68
REMARK   31  A    between atoms: _67  and  _70
REMARK   32  A    between atoms: _70  and  _71
REMARK   33  A    between atoms: _73  and  _75
REMARK   34  A    between atoms: _75  and  _76
REMARK   35  A    between atoms: _75  and  _78
REMARK   36  A    between atoms: _78  and  _79
REMARK   37  A    between atoms: _84  and  _86
REMARK   38  A    between atoms: _86  and  _87
REMARK   39  A    between atoms: _86  and  _89
REMARK   40  A    between atoms: _89  and  _90
REMARK   41  A    between atoms: _93  and  _95
REMARK   42  A    between atoms: _95  and  _96
REMARK   43  A    between atoms: _99  and  _101
REMARK   44  A    between atoms: _101  and  _102
REMARK   45  A    between atoms: _101  and  _104
REMARK   46  A    between atoms: _104  and  _105
REMARK   47  A    between atoms: _108  and  _110
REMARK   48  A    between atoms: _110  and  _111
REMARK   49  A    between atoms: _110  and  _113
REMARK   50  A    between atoms: _113  and  _114
REMARK   51  A    between atoms: _120  and  _122
REMARK   52  A    between atoms: _122  and  _123
REMARK   53  A    between atoms: _126  and  _128
REMARK   54  A    between atoms: _128  and  _129
REMARK   55  A    between atoms: _128  and  _131
REMARK   56  A    between atoms: _131  and  _132
REMARK   57  A    between atoms: _135  and  _137
REMARK   58  A    between atoms: _137  and  _138
REMARK   59  A    between atoms: _140  and  _142
REMARK   60  A    between atoms: _142  and  _143
REMARK   61  A    between atoms: _142  and  _145
REMARK   62  A    between atoms: _145  and  _146
REMARK   63  A    between atoms: _146  and  _147
REMARK   64  A    between atoms: _152  and  _154
REMARK   65  A    between atoms: _154  and  _155
REMARK   66  A    between atoms: _157  and  _159
REMARK   67  A    between atoms: _159  and  _160
REMARK   68  A    between atoms: _159  and  _162
REMARK   69  A    between atoms: _162  and  _163
REMARK   70  A    between atoms: _166  and  _168
REMARK   71  A    between atoms: _168  and  _169
REMARK   72  A    between atoms: _168  and  _171
REMARK   73  A    between atoms: _171  and  _172
REMARK   74  A    between atoms: _178  and  _180
REMARK   75  A    between atoms: _180  and  _181
REMARK   76  A    between atoms: _180  and  _183
REMARK   77  A    between atoms: _183  and  _184
REMARK   78  A    between atoms: _187  and  _189
REMARK   79  A    between atoms: _189  and  _190
REMARK   80  A    between atoms: _189  and  _192
REMARK   81  A    between atoms: _192  and  _193
REMARK   82  A    between atoms: _199  and  _201
REMARK   83  A    between atoms: _201  and  _202
REMARK   84  A    between atoms: _201  and  _204
REMARK   85  A    between atoms: _204  and  _205
REMARK   86  A    between atoms: _211  and  _213
REMARK   87  A    between atoms: _213  and  _214
REMARK   88  A    between atoms: _213  and  _216
REMARK   89  A    between atoms: _216  and  _217
REMARK   90  A    between atoms: _220  and  _222
REMARK   91  A    between atoms: _222  and  _223
REMARK   92  A    between atoms: _222  and  _225
REMARK   93  A    between atoms: _225  and  _226
REMARK   94  A    between atoms: _229  and  _231
REMARK   95  A    between atoms: _231  and  _232
REMARK   96  A    between atoms: _231  and  _234
REMARK   97  A    between atoms: _234  and  _235
REMARK   98  A    between atoms: _235  and  _236
REMARK   99  A    between atoms: _236  and  _237
REMARK  100  A    between atoms: _246  and  _248
REMARK  101  A    between atoms: _248  and  _249
REMARK  102  A    between atoms: _248  and  _251
REMARK  103  A    between atoms: _251  and  _252
REMARK  104  A    between atoms: _255  and  _257
REMARK  105  A    between atoms: _257  and  _258
REMARK  106  A    between atoms: _257  and  _260
REMARK  107  A    between atoms: _260  and  _261
REMARK  108  A    between atoms: _263  and  _265
REMARK  109  A    between atoms: _265  and  _266
REMARK  110  A    between atoms: _265  and  _268
REMARK  111  A    between atoms: _268  and  _269
REMARK  112  A    between atoms: _269  and  _270
REMARK  113  A    between atoms: _275  and  _277
REMARK  114  A    between atoms: _277  and  _278
REMARK  115  A    between atoms: _277  and  _280
REMARK  116  A    between atoms: _280  and  _281
REMARK  117  A    between atoms: _283  and  _285
REMARK  118  A    between atoms: _285  and  _286
REMARK  119  A    between atoms: _288  and  _290
REMARK  120  A    between atoms: _290  and  _291
REMARK  121  A    between atoms: _290  and  _293
REMARK  122  A    between atoms: _293  and  _294
REMARK  123  A    between atoms: _299  and  _301
REMARK  124  A    between atoms: _301  and  _302
REMARK  125  A    between atoms: _304  and  _306
REMARK  126  A    between atoms: _306  and  _307
REMARK  127  A    between atoms: _306  and  _309
REMARK  128  A    between atoms: _309  and  _310
REMARK  129  A    between atoms: _315  and  _316
REMARK  130  A    between atoms: _318  and  _320
REMARK  131  A    between atoms: _320  and  _321
REMARK  132  A    between atoms: _320  and  _323
REMARK  133  A    between atoms: _323  and  _324
REMARK  134  A    between atoms: _330  and  _332
REMARK  135  A    between atoms: _332  and  _333
REMARK  136  A    between atoms: _332  and  _335
REMARK  137  A    between atoms: _335  and  _336
REMARK  138  A    between atoms: _339  and  _341
REMARK  139  A    between atoms: _341  and  _342
REMARK  140  A    between atoms: _341  and  _344
REMARK  141  A    between atoms: _344  and  _345
REMARK  142  A    between atoms: _345  and  _346
REMARK  143  A    between atoms: _349  and  _351
REMARK  144  A    between atoms: _351  and  _352
REMARK  145  A    between atoms: _351  and  _354
REMARK  146  A    between atoms: _354  and  _355
REMARK  147  A    between atoms: _358  and  _360
REMARK  148  A    between atoms: _360  and  _361
REMARK  149  A    between atoms: _360  and  _363
REMARK  150  A    between atoms: _363  and  _364
REMARK  151  A    between atoms: _367  and  _369
REMARK  152  A    between atoms: _369  and  _370
REMARK  153  A    between atoms: _372  and  _374
REMARK  154  A    between atoms: _374  and  _375
REMARK  155  A    between atoms: _374  and  _377
REMARK  156  A    between atoms: _380  and  _382
REMARK  157  A    between atoms: _382  and  _383
REMARK  158  A    between atoms: _382  and  _385
REMARK  159  A    between atoms: _385  and  _386
REMARK  160  A    between atoms: _388  and  _390
REMARK  161  A    between atoms: _390  and  _391
REMARK  162  A    between atoms: _390  and  _393
REMARK  163  A    between atoms: _393  and  _394
REMARK  164  A    between atoms: _394  and  _395
REMARK  165  A    between atoms: _397  and  _399
REMARK  166  A    between atoms: _399  and  _400
REMARK  167  A    between atoms: _399  and  _402
REMARK  168  A    between atoms: _402  and  _403
REMARK  169  A    between atoms: _408  and  _409
REMARK  170  A    between atoms: _411  and  _413
REMARK  171  A    between atoms: _413  and  _414
REMARK  172  A    between atoms: _413  and  _416
REMARK  173  A    between atoms: _416  and  _417
REMARK  174  A    between atoms: _420  and  _422
REMARK  175  A    between atoms: _422  and  _423
REMARK  176  A    between atoms: _422  and  _425
REMARK  177  A    between atoms: _425  and  _426
REMARK  178  A    between atoms: _428  and  _430
REMARK  179  A    between atoms: _430  and  _431
REMARK  180  A    between atoms: _430  and  _433
REMARK  181  A    between atoms: _433  and  _434
REMARK  182  A    between atoms: _437  and  _439
REMARK  183  A    between atoms: _439  and  _440
REMARK  184  A    between atoms: _439  and  _442
REMARK  185  A    between atoms: _442  and  _443
REMARK  186  A    between atoms: _448  and  _449
REMARK  187  A    between atoms: _451  and  _453
REMARK  188  A    between atoms: _453  and  _454
REMARK  189  A    between atoms: _453  and  _456
REMARK  190  A    between atoms: _456  and  _457
REMARK  191  A    between atoms: _459  and  _461
REMARK  192  A    between atoms: _461  and  _462
REMARK  193  A    between atoms: _461  and  _464
REMARK  194  A    between atoms: _464  and  _465
REMARK  195  A    between atoms: _471  and  _473
REMARK  196  A    between atoms: _473  and  _474
REMARK  197  A    between atoms: _473  and  _476
REMARK  198  A    between atoms: _476  and  _477
REMARK  199  A    between atoms: _477  and  _478
REMARK  200  A    between atoms: _478  and  _479
REMARK  201  A    between atoms: _488  and  _490
REMARK  202  A    between atoms: _490  and  _491
REMARK  203  A    between atoms: _490  and  _493
REMARK  204  A    between atoms: _496  and  _498
REMARK  205  A    between atoms: _498  and  _499
REMARK  206  A    between atoms: _501  and  _503
REMARK  207  A    between atoms: _503  and  _504
REMARK  208  A    between atoms: _503  and  _506
REMARK  209  A    between atoms: _506  and  _507
REMARK  210  A    between atoms: _510  and  _512
REMARK  211  A    between atoms: _512  and  _513
REMARK  212  A    between atoms: _512  and  _515
REMARK  213  A    between atoms: _515  and  _516
REMARK  214  A    between atoms: _516  and  _517
REMARK  215  A    between atoms: _519  and  _521
REMARK  216  A    between atoms: _521  and  _522
REMARK  217  A    between atoms: _521  and  _524
REMARK  218  A    between atoms: _524  and  _525
REMARK  219  A    between atoms: _531  and  _533
REMARK  220  A    between atoms: _533  and  _534
REMARK  221  A    between atoms: _533  and  _536
REMARK  222  A    between atoms: _536  and  _537
REMARK  223  A    between atoms: _542  and  _544
REMARK  224  A    between atoms: _544  and  _545
REMARK  225  A    between atoms: _544  and  _547
REMARK  226  A    between atoms: _547  and  _548
REMARK  227  A    between atoms: _558  and  _560
REMARK  228  A    between atoms: _560  and  _561
REMARK  229  A    between atoms: _560  and  _563
REMARK  230  A    between atoms: _566  and  _568
REMARK  231  A    between atoms: _568  and  _569
REMARK  232  A    between atoms: _568  and  _571
REMARK  233  A    between atoms: _571  and  _572
REMARK  234  A    between atoms: _575  and  _577
REMARK  235  A    between atoms: _577  and  _578
REMARK  236  A    between atoms: _577  and  _580
REMARK  237  A    between atoms: _580  and  _581
REMARK  238  A    between atoms: _581  and  _582
REMARK  239  A    between atoms: _584  and  _586
REMARK  240  A    between atoms: _586  and  _587
REMARK  241  A    between atoms: _586  and  _589
REMARK  242  A    between atoms: _589  and  _590
REMARK  243  A    between atoms: _593  and  _595
REMARK  244  A    between atoms: _595  and  _596
REMARK  245  A    between atoms: _595  and  _598
REMARK  246  A    between atoms: _598  and  _599
REMARK  247  A    between atoms: _602  and  _604
REMARK  248  A    between atoms: _604  and  _605
REMARK  249  A    between atoms: _607  and  _609
REMARK  250  A    between atoms: _609  and  _610
REMARK  251  A    between atoms: _609  and  _612
REMARK  252  A    between atoms: _612  and  _613
REMARK  253  A    between atoms: _615  and  _617
REMARK  254  A    between atoms: _617  and  _618
REMARK  255  A    between atoms: _617  and  _620
REMARK  256  A    between atoms: _620  and  _621
REMARK  257  A    between atoms: _631  and  _633
REMARK  258  A    between atoms: _633  and  _634
REMARK  259  A    between atoms: _633  and  _636
REMARK  260  A    between atoms: _636  and  _637
REMARK  261  A    between atoms: _639  and  _641
REMARK  262  A    between atoms: _641  and  _642
REMARK  263  A    between atoms: _641  and  _644
REMARK  264  A    between atoms: _644  and  _645
REMARK  265  A    between atoms: _648  and  _650
REMARK  266  A    between atoms: _650  and  _651
REMARK  267  A    between atoms: _654  and  _656
REMARK  268  A    between atoms: _656  and  _657
REMARK  269  A    between atoms: _656  and  _659
REMARK  270  A    between atoms: _659  and  _660
REMARK  271  A    between atoms: _662  and  _664
REMARK  272  A    between atoms: _664  and  _665
REMARK  273  A    between atoms: _664  and  _667
REMARK  274  A    between atoms: _667  and  _668
REMARK  275  A    between atoms: _668  and  _669
REMARK  276  A    between atoms: _673  and  _674
REMARK  277  A    between atoms: _679  and  _681
REMARK  278  A    between atoms: _681  and  _682
REMARK  279  A    between atoms: _681  and  _684
REMARK  280  A    between atoms: _684  and  _685
REMARK  281  A    between atoms: _687  and  _689
REMARK  282  A    between atoms: _689  and  _690
REMARK  283  A    between atoms: _689  and  _692
REMARK  284  A    between atoms: _692  and  _693
REMARK  285  A    between atoms: _693  and  _694
REMARK  286  A    between atoms: _699  and  _701
REMARK  287  A    between atoms: _701  and  _702
REMARK  288  A    between atoms: _701  and  _704
REMARK  289  A    between atoms: _704  and  _705
REMARK  290  A    between atoms: _705  and  _706
REMARK  291  A    between atoms: _711  and  _713
REMARK  292  A    between atoms: _713  and  _714
REMARK  293  A    between atoms: _713  and  _716
REMARK  294  A    between atoms: _716  and  _717
REMARK  295  A    between atoms: _720  and  _722
REMARK  296  A    between atoms: _722  and  _723
REMARK  297  A    between atoms: _722  and  _725
REMARK  298  A    between atoms: _725  and  _726
REMARK  299  A    between atoms: _729  and  _731
REMARK  300  A    between atoms: _731  and  _732
REMARK  301  A    between atoms: _731  and  _734
REMARK  302  A    between atoms: _734  and  _735
REMARK  303  A    between atoms: _741  and  _743
REMARK  304  A    between atoms: _743  and  _744
REMARK  305  A    between atoms: _743  and  _746
REMARK  306  A    between atoms: _746  and  _747
REMARK  307  A    between atoms: _752  and  _753
REMARK  308  A    between atoms: _755  and  _757
REMARK  309  A    between atoms: _757  and  _758
REMARK  310  A    between atoms: _757  and  _760
REMARK  311  A    between atoms: _760  and  _761
REMARK  312  A    between atoms: _767  and  _769
REMARK  313  A    between atoms: _769  and  _770
REMARK  314  A    between atoms: _769  and  _772
REMARK  315  A    between atoms: _772  and  _773
REMARK  316  A    between atoms: _778  and  _780
REMARK  317  A    between atoms: _780  and  _781
REMARK  318  A    between atoms: _780  and  _783
REMARK  319  A    between atoms: _783  and  _784
REMARK  320  A    between atoms: _784  and  _785
REMARK                            x       y       z     vdW  Elec       q    Type
REMARK                         _______ _______ _______ _____ _____    ______ ____
ROOT
ATOM      1  O   HOH     1       0.440  50.881  32.355  0.00  0.00    +0.000 OA
ENDROOT
TORSDOF 0
REMARK  Name = ../refined-set-2016/3drf/3drf_pocket.pdb
REMARK  320 active torsions:
REMARK  status: ('A' for Active; 'I' for Inactive)
REMARK    1  A    between atoms: _1  and  _3
REMARK    2  A    between atoms: _3  and  _4
REMARK    3  A    between atoms: _3  and  _6
REMARK    4  A    between atoms: _6  and  _7
REMARK    5  A    between atoms: _12  and  _13
REMARK    6  A    between atoms: _15  and  _17
REMARK    7  A    between atoms: _17  and  _18
REMARK    8  A    between atoms: _17  and  _20
REMARK    9  A    between atoms: _20  and  _21
REMARK   10  A    between atoms: _21  and  _22
REMARK   11  A    between atoms: _27  and  _29
REMARK   12  A    between atoms: _29  and  _30
REMARK   13  A    between atoms: _29  and  _32
REMARK   14  A    between atoms: _32  and  _33
REMARK   15  A    between atoms: _35  and  _37
REMARK   16  A    between atoms: _37  and  _38
REMARK   17  A    between atoms: _37  and  _40
REMARK   18  A    between atoms: _40  and  _41
REMARK   19  A    between atoms: _44  and  _46
REMARK   20  A    between atoms: _46  and  _47
REMARK   21  A    between atoms: _46  and  _49
REMARK   22  A    between atoms: _49  and  _50
REMARK   23  A    between atoms: _52  and  _54
REMARK   24  A    between atoms: _54  and  _55
REMARK   25  A    between atoms: _54  and  _57
REMARK   26  A    between atoms: _57  and  _58
REMARK   27  A    between atoms: _60  and  _62
REMARK   28  A    between atoms: _62  and  _63
REMARK   29  A    between atoms: _65  and  _67
REMARK   30  A    between atoms: _67  and  _68
REMARK   31  A    between atoms: _67  and  _70
REMARK   32  A    between atoms: _70  and  _71
REMARK   33  A    between atoms: _73  and  _75
REMARK   34  A    between atoms: _75  and  _76
REMARK   35  A    between atoms: _75  and  _78
REMARK   36  A    between atoms: _78  and  _79
REMARK   37  A    between atoms: _84  and  _86
REMARK   38  A    between atoms: _86  and  _87
REMARK   39  A    between atoms: _86  and  _89
REMARK   40  A    between atoms: _89  and  _90
REMARK   41  A    between atoms: _93  and  _95
REMARK   42  A    between atoms: _95  and  _96
REMARK   43  A    between atoms: _99  and  _101
REMARK   44  A    between atoms: _101  and  _102
REMARK   45  A    between atoms: _101  and  _104
REMARK   46  A    between atoms: _104  and  _105
REMARK   47  A    between atoms: _108  and  _110
REMARK   48  A    between atoms: _110  and  _111
REMARK   49  A    between atoms: _110  and  _113
REMARK   50  A    between atoms: _113  and  _114
REMARK   51  A    between atoms: _120  and  _122
REMARK   52  A    between atoms: _122  and  _123
REMARK   53  A    between atoms: _126  and  _128
REMARK   54  A    between atoms: _128  and  _129
REMARK   55  A    between atoms: _128  and  _131
REMARK   56  A    between atoms: _131  and  _132
REMARK   57  A    between atoms: _135  and  _137
REMARK   58  A    between atoms: _137  and  _138
REMARK   59  A    between atoms: _140  and  _142
REMARK   60  A    between atoms: _142  and  _143
REMARK   61  A    between atoms: _142  and  _145
REMARK   62  A    between atoms: _145  and  _146
REMARK   63  A    between atoms: _146  and  _147
REMARK   64  A    between atoms: _152  and  _154
REMARK   65  A    between atoms: _154  and  _155
REMARK   66  A    between atoms: _157  and  _159
REMARK   67  A    between atoms: _159  and  _160
REMARK   68  A    between atoms: _159  and  _162
REMARK   69  A    between atoms: _162  and  _163
REMARK   70  A    between atoms: _166  and  _168
REMARK   71  A    between atoms: _168  and  _169
REMARK   72  A    between atoms: _168  and  _171
REMARK   73  A    between atoms: _171  and  _172
REMARK   74  A    between atoms: _178  and  _180
REMARK   75  A    between atoms: _180  and  _181
REMARK   76  A    between atoms: _180  and  _183
REMARK   77  A    between atoms: _183  and  _184
REMARK   78  A    between atoms: _187  and  _189
REMARK   79  A    between atoms: _189  and  _190
REMARK   80  A    between atoms: _189  and  _192
REMARK   81  A    between atoms: _192  and  _193
REMARK   82  A    between atoms: _199  and  _201
REMARK   83  A    between atoms: _201  and  _202
REMARK   84  A    between atoms: _201  and  _204
REMARK   85  A    between atoms: _204  and  _205
REMARK   86  A    between atoms: _211  and  _213
REMARK   87  A    between atoms: _213  and  _214
REMARK   88  A    between atoms: _213  and  _216
REMARK   89  A    between atoms: _216  and  _217
REMARK   90  A    between atoms: _220  and  _222
REMARK   91  A    between atoms: _222  and  _223
REMARK   92  A    between atoms: _222  and  _225
REMARK   93  A    between atoms: _225  and  _226
REMARK   94  A    between atoms: _229  and  _231
REMARK   95  A    between atoms: _231  and  _232
REMARK   96  A    between atoms: _231  and  _234
REMARK   97  A    between atoms: _234  and  _235
REMARK   98  A    between atoms: _235  and  _236
REMARK   99  A    between atoms: _236  and  _237
REMARK  100  A    between atoms: _246  and  _248
REMARK  101  A    between atoms: _248  and  _249
REMARK  102  A    between atoms: _248  and  _251
REMARK  103  A    between atoms: _251  and  _252
REMARK  104  A    between atoms: _255  and  _257
REMARK  105  A    between atoms: _257  and  _258
REMARK  106  A    between atoms: _257  and  _260
REMARK  107  A    between atoms: _260  and  _261
REMARK  108  A    between atoms: _263  and  _265
REMARK  109  A    between atoms: _265  and  _266
REMARK  110  A    between atoms: _265  and  _268
REMARK  111  A    between atoms: _268  and  _269
REMARK  112  A    between atoms: _269  and  _270
REMARK  113  A    between atoms: _275  and  _277
REMARK  114  A    between atoms: _277  and  _278
REMARK  115  A    between atoms: _277  and  _280
REMARK  116  A    between atoms: _280  and  _281
REMARK  117  A    between atoms: _283  and  _285
REMARK  118  A    between atoms: _285  and  _286
REMARK  119  A    between atoms: _288  and  _290
REMARK  120  A    between atoms: _290  and  _291
REMARK  121  A    between atoms: _290  and  _293
REMARK  122  A    between atoms: _293  and  _294
REMARK  123  A    between atoms: _299  and  _301
REMARK  124  A    between atoms: _301  and  _302
REMARK  125  A    between atoms: _304  and  _306
REMARK  126  A    between atoms: _306  and  _307
REMARK  127  A    between atoms: _306  and  _309
REMARK  128  A    between atoms: _309  and  _310
REMARK  129  A    between atoms: _315  and  _316
REMARK  130  A    between atoms: _318  and  _320
REMARK  131  A    between atoms: _320  and  _321
REMARK  132  A    between atoms: _320  and  _323
REMARK  133  A    between atoms: _323  and  _324
REMARK  134  A    between atoms: _330  and  _332
REMARK  135  A    between atoms: _332  and  _333
REMARK  136  A    between atoms: _332  and  _335
REMARK  137  A    between atoms: _335  and  _336
REMARK  138  A    between atoms: _339  and  _341
REMARK  139  A    between atoms: _341  and  _342
REMARK  140  A    between atoms: _341  and  _344
REMARK  141  A    between atoms: _344  and  _345
REMARK  142  A    between atoms: _345  and  _346
REMARK  143  A    between atoms: _349  and  _351
REMARK  144  A    between atoms: _351  and  _352
REMARK  145  A    between atoms: _351  and  _354
REMARK  146  A    between atoms: _354  and  _355
REMARK  147  A    between atoms: _358  and  _360
REMARK  148  A    between atoms: _360  and  _361
REMARK  149  A    between atoms: _360  and  _363
REMARK  150  A    between atoms: _363  and  _364
REMARK  151  A    between atoms: _367  and  _369
REMARK  152  A    between atoms: _369  and  _370
REMARK  153  A    between atoms: _372  and  _374
REMARK  154  A    between atoms: _374  and  _375
REMARK  155  A    between atoms: _374  and  _377
REMARK  156  A    between atoms: _380  and  _382
REMARK  157  A    between atoms: _382  and  _383
REMARK  158  A    between atoms: _382  and  _385
REMARK  159  A    between atoms: _385  and  _386
REMARK  160  A    between atoms: _388  and  _390
REMARK  161  A    between atoms: _390  and  _391
REMARK  162  A    between atoms: _390  and  _393
REMARK  163  A    between atoms: _393  and  _394
REMARK  164  A    between atoms: _394  and  _395
REMARK  165  A    between atoms: _397  and  _399
REMARK  166  A    between atoms: _399  and  _400
REMARK  167  A    between atoms: _399  and  _402
REMARK  168  A    between atoms: _402  and  _403
REMARK  169  A    between atoms: _408  and  _409
REMARK  170  A    between atoms: _411  and  _413
REMARK  171  A    between atoms: _413  and  _414
REMARK  172  A    between atoms: _413  and  _416
REMARK  173  A    between atoms: _416  and  _417
REMARK  174  A    between atoms: _420  and  _422
REMARK  175  A    between atoms: _422  and  _423
REMARK  176  A    between atoms: _422  and  _425
REMARK  177  A    between atoms: _425  and  _426
REMARK  178  A    between atoms: _428  and  _430
REMARK  179  A    between atoms: _430  and  _431
REMARK  180  A    between atoms: _430  and  _433
REMARK  181  A    between atoms: _433  and  _434
REMARK  182  A    between atoms: _437  and  _439
REMARK  183  A    between atoms: _439  and  _440
REMARK  184  A    between atoms: _439  and  _442
REMARK  185  A    between atoms: _442  and  _443
REMARK  186  A    between atoms: _448  and  _449
REMARK  187  A    between atoms: _451  and  _453
REMARK  188  A    between atoms: _453  and  _454
REMARK  189  A    between atoms: _453  and  _456
REMARK  190  A    between atoms: _456  and  _457
REMARK  191  A    between atoms: _459  and  _461
REMARK  192  A    between atoms: _461  and  _462
REMARK  193  A    between atoms: _461  and  _464
REMARK  194  A    between atoms: _464  and  _465
REMARK  195  A    between atoms: _471  and  _473
REMARK  196  A    between atoms: _473  and  _474
REMARK  197  A    between atoms: _473  and  _476
REMARK  198  A    between atoms: _476  and  _477
REMARK  199  A    between atoms: _477  and  _478
REMARK  200  A    between atoms: _478  and  _479
REMARK  201  A    between atoms: _488  and  _490
REMARK  202  A    between atoms: _490  and  _491
REMARK  203  A    between atoms: _490  and  _493
REMARK  204  A    between atoms: _496  and  _498
REMARK  205  A    between atoms: _498  and  _499
REMARK  206  A    between atoms: _501  and  _503
REMARK  207  A    between atoms: _503  and  _504
REMARK  208  A    between atoms: _503  and  _506
REMARK  209  A    between atoms: _506  and  _507
REMARK  210  A    between atoms: _510  and  _512
REMARK  211  A    between atoms: _512  and  _513
REMARK  212  A    between atoms: _512  and  _515
REMARK  213  A    between atoms: _515  and  _516
REMARK  214  A    between atoms: _516  and  _517
REMARK  215  A    between atoms: _519  and  _521
REMARK  216  A    between atoms: _521  and  _522
REMARK  217  A    between atoms: _521  and  _524
REMARK  218  A    between atoms: _524  and  _525
REMARK  219  A    between atoms: _531  and  _533
REMARK  220  A    between atoms: _533  and  _534
REMARK  221  A    between atoms: _533  and  _536
REMARK  222  A    between atoms: _536  and  _537
REMARK  223  A    between atoms: _542  and  _544
REMARK  224  A    between atoms: _544  and  _545
REMARK  225  A    between atoms: _544  and  _547
REMARK  226  A    between atoms: _547  and  _548
REMARK  227  A    between atoms: _558  and  _560
REMARK  228  A    between atoms: _560  and  _561
REMARK  229  A    between atoms: _560  and  _563
REMARK  230  A    between atoms: _566  and  _568
REMARK  231  A    between atoms: _568  and  _569
REMARK  232  A    between atoms: _568  and  _571
REMARK  233  A    between atoms: _571  and  _572
REMARK  234  A    between atoms: _575  and  _577
REMARK  235  A    between atoms: _577  and  _578
REMARK  236  A    between atoms: _577  and  _580
REMARK  237  A    between atoms: _580  and  _581
REMARK  238  A    between atoms: _581  and  _582
REMARK  239  A    between atoms: _584  and  _586
REMARK  240  A    between atoms: _586  and  _587
REMARK  241  A    between atoms: _586  and  _589
REMARK  242  A    between atoms: _589  and  _590
REMARK  243  A    between atoms: _593  and  _595
REMARK  244  A    between atoms: _595  and  _596
REMARK  245  A    between atoms: _595  and  _598
REMARK  246  A    between atoms: _598  and  _599
REMARK  247  A    between atoms: _602  and  _604
REMARK  248  A    between atoms: _604  and  _605
REMARK  249  A    between atoms: _607  and  _609
REMARK  250  A    between atoms: _609  and  _610
REMARK  251  A    between atoms: _609  and  _612
REMARK  252  A    between atoms: _612  and  _613
REMARK  253  A    between atoms: _615  and  _617
REMARK  254  A    between atoms: _617  and  _618
REMARK  255  A    between atoms: _617  and  _620
REMARK  256  A    between atoms: _620  and  _621
REMARK  257  A    between atoms: _631  and  _633
REMARK  258  A    between atoms: _633  and  _634
REMARK  259  A    between atoms: _633  and  _636
REMARK  260  A    between atoms: _636  and  _637
REMARK  261  A    between atoms: _639  and  _641
REMARK  262  A    between atoms: _641  and  _642
REMARK  263  A    between atoms: _641  and  _644
REMARK  264  A    between atoms: _644  and  _645
REMARK  265  A    between atoms: _648  and  _650
REMARK  266  A    between atoms: _650  and  _651
REMARK  267  A    between atoms: _654  and  _656
REMARK  268  A    between atoms: _656  and  _657
REMARK  269  A    between atoms: _656  and  _659
REMARK  270  A    between atoms: _659  and  _660
REMARK  271  A    between atoms: _662  and  _664
REMARK  272  A    between atoms: _664  and  _665
REMARK  273  A    between atoms: _664  and  _667
REMARK  274  A    between atoms: _667  and  _668
REMARK  275  A    between atoms: _668  and  _669
REMARK  276  A    between atoms: _673  and  _674
REMARK  277  A    between atoms: _679  and  _681
REMARK  278  A    between atoms: _681  and  _682
REMARK  279  A    between atoms: _681  and  _684
REMARK  280  A    between atoms: _684  and  _685
REMARK  281  A    between atoms: _687  and  _689
REMARK  282  A    between atoms: _689  and  _690
REMARK  283  A    between atoms: _689  and  _692
REMARK  284  A    between atoms: _692  and  _693
REMARK  285  A    between atoms: _693  and  _694
REMARK  286  A    between atoms: _699  and  _701
REMARK  287  A    between atoms: _701  and  _702
REMARK  288  A    between atoms: _701  and  _704
REMARK  289  A    between atoms: _704  and  _705
REMARK  290  A    between atoms: _705  and  _706
REMARK  291  A    between atoms: _711  and  _713
REMARK  292  A    between atoms: _713  and  _714
REMARK  293  A    between atoms: _713  and  _716
REMARK  294  A    between atoms: _716  and  _717
REMARK  295  A    between atoms: _720  and  _722
REMARK  296  A    between atoms: _722  and  _723
REMARK  297  A    between atoms: _722  and  _725
REMARK  298  A    between atoms: _725  and  _726
REMARK  299  A    between atoms: _729  and  _731
REMARK  300  A    between atoms: _731  and  _732
REMARK  301  A    between atoms: _731  and  _734
REMARK  302  A    between atoms: _734  and  _735
REMARK  303  A    between atoms: _741  and  _743
REMARK  304  A    between atoms: _743  and  _744
REMARK  305  A    between atoms: _743  and  _746
REMARK  306  A    between atoms: _746  and  _747
REMARK  307  A    between atoms: _752  and  _753
REMARK  308  A    between atoms: _755  and  _757
REMARK  309  A    between atoms: _757  and  _758
REMARK  310  A    between atoms: _757  and  _760
REMARK  311  A    between atoms: _760  and  _761
REMARK  312  A    between atoms: _767  and  _769
REMARK  313  A    between atoms: _769  and  _770
REMARK  314  A    between atoms: _769  and  _772
REMARK  315  A    between atoms: _772  and  _773
REMARK  316  A    between atoms: _778  and  _780
REMARK  317  A    between atoms: _780  and  _781
REMARK  318  A    between atoms: _780  and  _783
REMARK  319  A    between atoms: _783  and  _784
REMARK  320  A    between atoms: _784  and  _785
REMARK                            x       y       z     vdW  Elec       q    Type
REMARK                         _______ _______ _______ _____ _____    ______ ____
ROOT
ATOM      1  O   HOH     1       2.300  49.874  22.774  0.00  0.00    +0.000 OA
ENDROOT
TORSDOF 0
REMARK  Name = ../refined-set-2016/3drf/3drf_pocket.pdb
REMARK  320 active torsions:
REMARK  status: ('A' for Active; 'I' for Inactive)
REMARK    1  A    between atoms: _1  and  _3
REMARK    2  A    between atoms: _3  and  _4
REMARK    3  A    between atoms: _3  and  _6
REMARK    4  A    between atoms: _6  and  _7
REMARK    5  A    between atoms: _12  and  _13
REMARK    6  A    between atoms: _15  and  _17
REMARK    7  A    between atoms: _17  and  _18
REMARK    8  A    between atoms: _17  and  _20
REMARK    9  A    between atoms: _20  and  _21
REMARK   10  A    between atoms: _21  and  _22
REMARK   11  A    between atoms: _27  and  _29
REMARK   12  A    between atoms: _29  and  _30
REMARK   13  A    between atoms: _29  and  _32
REMARK   14  A    between atoms: _32  and  _33
REMARK   15  A    between atoms: _35  and  _37
REMARK   16  A    between atoms: _37  and  _38
REMARK   17  A    between atoms: _37  and  _40
REMARK   18  A    between atoms: _40  and  _41
REMARK   19  A    between atoms: _44  and  _46
REMARK   20  A    between atoms: _46  and  _47
REMARK   21  A    between atoms: _46  and  _49
REMARK   22  A    between atoms: _49  and  _50
REMARK   23  A    between atoms: _52  and  _54
REMARK   24  A    between atoms: _54  and  _55
REMARK   25  A    between atoms: _54  and  _57
REMARK   26  A    between atoms: _57  and  _58
REMARK   27  A    between atoms: _60  and  _62
REMARK   28  A    between atoms: _62  and  _63
REMARK   29  A    between atoms: _65  and  _67
REMARK   30  A    between atoms: _67  and  _68
REMARK   31  A    between atoms: _67  and  _70
REMARK   32  A    between atoms: _70  and  _71
REMARK   33  A    between atoms: _73  and  _75
REMARK   34  A    between atoms: _75  and  _76
REMARK   35  A    between atoms: _75  and  _78
REMARK   36  A    between atoms: _78  and  _79
REMARK   37  A    between atoms: _84  and  _86
REMARK   38  A    between atoms: _86  and  _87
REMARK   39  A    between atoms: _86  and  _89
REMARK   40  A    between atoms: _89  and  _90
REMARK   41  A    between atoms: _93  and  _95
REMARK   42  A    between atoms: _95  and  _96
REMARK   43  A    between atoms: _99  and  _101
REMARK   44  A    between atoms: _101  and  _102
REMARK   45  A    between atoms: _101  and  _104
REMARK   46  A    between atoms: _104  and  _105
REMARK   47  A    between atoms: _108  and  _110
REMARK   48  A    between atoms: _110  and  _111
REMARK   49  A    between atoms: _110  and  _113
REMARK   50  A    between atoms: _113  and  _114
REMARK   51  A    between atoms: _120  and  _122
REMARK   52  A    between atoms: _122  and  _123
REMARK   53  A    between atoms: _126  and  _128
REMARK   54  A    between atoms: _128  and  _129
REMARK   55  A    between atoms: _128  and  _131
REMARK   56  A    between atoms: _131  and  _132
REMARK   57  A    between atoms: _135  and  _137
REMARK   58  A    between atoms: _137  and  _138
REMARK   59  A    between atoms: _140  and  _142
REMARK   60  A    between atoms: _142  and  _143
REMARK   61  A    between atoms: _142  and  _145
REMARK   62  A    between atoms: _145  and  _146
REMARK   63  A    between atoms: _146  and  _147
REMARK   64  A    between atoms: _152  and  _154
REMARK   65  A    between atoms: _154  and  _155
REMARK   66  A    between atoms: _157  and  _159
REMARK   67  A    between atoms: _159  and  _160
REMARK   68  A    between atoms: _159  and  _162
REMARK   69  A    between atoms: _162  and  _163
REMARK   70  A    between atoms: _166  and  _168
REMARK   71  A    between atoms: _168  and  _169
REMARK   72  A    between atoms: _168  and  _171
REMARK   73  A    between atoms: _171  and  _172
REMARK   74  A    between atoms: _178  and  _180
REMARK   75  A    between atoms: _180  and  _181
REMARK   76  A    between atoms: _180  and  _183
REMARK   77  A    between atoms: _183  and  _184
REMARK   78  A    between atoms: _187  and  _189
REMARK   79  A    between atoms: _189  and  _190
REMARK   80  A    between atoms: _189  and  _192
REMARK   81  A    between atoms: _192  and  _193
REMARK   82  A    between atoms: _199  and  _201
REMARK   83  A    between atoms: _201  and  _202
REMARK   84  A    between atoms: _201  and  _204
REMARK   85  A    between atoms: _204  and  _205
REMARK   86  A    between atoms: _211  and  _213
REMARK   87  A    between atoms: _213  and  _214
REMARK   88  A    between atoms: _213  and  _216
REMARK   89  A    between atoms: _216  and  _217
REMARK   90  A    between atoms: _220  and  _222
REMARK   91  A    between atoms: _222  and  _223
REMARK   92  A    between atoms: _222  and  _225
REMARK   93  A    between atoms: _225  and  _226
REMARK   94  A    between atoms: _229  and  _231
REMARK   95  A    between atoms: _231  and  _232
REMARK   96  A    between atoms: _231  and  _234
REMARK   97  A    between atoms: _234  and  _235
REMARK   98  A    between atoms: _235  and  _236
REMARK   99  A    between atoms: _236  and  _237
REMARK  100  A    between atoms: _246  and  _248
REMARK  101  A    between atoms: _248  and  _249
REMARK  102  A    between atoms: _248  and  _251
REMARK  103  A    between atoms: _251  and  _252
REMARK  104  A    between atoms: _255  and  _257
REMARK  105  A    between atoms: _257  and  _258
REMARK  106  A    between atoms: _257  and  _260
REMARK  107  A    between atoms: _260  and  _261
REMARK  108  A    between atoms: _263  and  _265
REMARK  109  A    between atoms: _265  and  _266
REMARK  110  A    between atoms: _265  and  _268
REMARK  111  A    between atoms: _268  and  _269
REMARK  112  A    between atoms: _269  and  _270
REMARK  113  A    between atoms: _275  and  _277
REMARK  114  A    between atoms: _277  and  _278
REMARK  115  A    between atoms: _277  and  _280
REMARK  116  A    between atoms: _280  and  _281
REMARK  117  A    between atoms: _283  and  _285
REMARK  118  A    between atoms: _285  and  _286
REMARK  119  A    between atoms: _288  and  _290
REMARK  120  A    between atoms: _290  and  _291
REMARK  121  A    between atoms: _290  and  _293
REMARK  122  A    between atoms: _293  and  _294
REMARK  123  A    between atoms: _299  and  _301
REMARK  124  A    between atoms: _301  and  _302
REMARK  125  A    between atoms: _304  and  _306
REMARK  126  A    between atoms: _306  and  _307
REMARK  127  A    between atoms: _306  and  _309
REMARK  128  A    between atoms: _309  and  _310
REMARK  129  A    between atoms: _315  and  _316
REMARK  130  A    between atoms: _318  and  _320
REMARK  131  A    between atoms: _320  and  _321
REMARK  132  A    between atoms: _320  and  _323
REMARK  133  A    between atoms: _323  and  _324
REMARK  134  A    between atoms: _330  and  _332
REMARK  135  A    between atoms: _332  and  _333
REMARK  136  A    between atoms: _332  and  _335
REMARK  137  A    between atoms: _335  and  _336
REMARK  138  A    between atoms: _339  and  _341
REMARK  139  A    between atoms: _341  and  _342
REMARK  140  A    between atoms: _341  and  _344
REMARK  141  A    between atoms: _344  and  _345
REMARK  142  A    between atoms: _345  and  _346
REMARK  143  A    between atoms: _349  and  _351
REMARK  144  A    between atoms: _351  and  _352
REMARK  145  A    between atoms: _351  and  _354
REMARK  146  A    between atoms: _354  and  _355
REMARK  147  A    between atoms: _358  and  _360
REMARK  148  A    between atoms: _360  and  _361
REMARK  149  A    between atoms: _360  and  _363
REMARK  150  A    between atoms: _363  and  _364
REMARK  151  A    between atoms: _367  and  _369
REMARK  152  A    between atoms: _369  and  _370
REMARK  153  A    between atoms: _372  and  _374
REMARK  154  A    between atoms: _374  and  _375
REMARK  155  A    between atoms: _374  and  _377
REMARK  156  A    between atoms: _380  and  _382
REMARK  157  A    between atoms: _382  and  _383
REMARK  158  A    between atoms: _382  and  _385
REMARK  159  A    between atoms: _385  and  _386
REMARK  160  A    between atoms: _388  and  _390
REMARK  161  A    between atoms: _390  and  _391
REMARK  162  A    between atoms: _390  and  _393
REMARK  163  A    between atoms: _393  and  _394
REMARK  164  A    between atoms: _394  and  _395
REMARK  165  A    between atoms: _397  and  _399
REMARK  166  A    between atoms: _399  and  _400
REMARK  167  A    between atoms: _399  and  _402
REMARK  168  A    between atoms: _402  and  _403
REMARK  169  A    between atoms: _408  and  _409
REMARK  170  A    between atoms: _411  and  _413
REMARK  171  A    between atoms: _413  and  _414
REMARK  172  A    between atoms: _413  and  _416
REMARK  173  A    between atoms: _416  and  _417
REMARK  174  A    between atoms: _420  and  _422
REMARK  175  A    between atoms: _422  and  _423
REMARK  176  A    between atoms: _422  and  _425
REMARK  177  A    between atoms: _425  and  _426
REMARK  178  A    between atoms: _428  and  _430
REMARK  179  A    between atoms: _430  and  _431
REMARK  180  A    between atoms: _430  and  _433
REMARK  181  A    between atoms: _433  and  _434
REMARK  182  A    between atoms: _437  and  _439
REMARK  183  A    between atoms: _439  and  _440
REMARK  184  A    between atoms: _439  and  _442
REMARK  185  A    between atoms: _442  and  _443
REMARK  186  A    between atoms: _448  and  _449
REMARK  187  A    between atoms: _451  and  _453
REMARK  188  A    between atoms: _453  and  _454
REMARK  189  A    between atoms: _453  and  _456
REMARK  190  A    between atoms: _456  and  _457
REMARK  191  A    between atoms: _459  and  _461
REMARK  192  A    between atoms: _461  and  _462
REMARK  193  A    between atoms: _461  and  _464
REMARK  194  A    between atoms: _464  and  _465
REMARK  195  A    between atoms: _471  and  _473
REMARK  196  A    between atoms: _473  and  _474
REMARK  197  A    between atoms: _473  and  _476
REMARK  198  A    between atoms: _476  and  _477
REMARK  199  A    between atoms: _477  and  _478
REMARK  200  A    between atoms: _478  and  _479
REMARK  201  A    between atoms: _488  and  _490
REMARK  202  A    between atoms: _490  and  _491
REMARK  203  A    between atoms: _490  and  _493
REMARK  204  A    between atoms: _496  and  _498
REMARK  205  A    between atoms: _498  and  _499
REMARK  206  A    between atoms: _501  and  _503
REMARK  207  A    between atoms: _503  and  _504
REMARK  208  A    between atoms: _503  and  _506
REMARK  209  A    between atoms: _506  and  _507
REMARK  210  A    between atoms: _510  and  _512
REMARK  211  A    between atoms: _512  and  _513
REMARK  212  A    between atoms: _512  and  _515
REMARK  213  A    between atoms: _515  and  _516
REMARK  214  A    between atoms: _516  and  _517
REMARK  215  A    between atoms: _519  and  _521
REMARK  216  A    between atoms: _521  and  _522
REMARK  217  A    between atoms: _521  and  _524
REMARK  218  A    between atoms: _524  and  _525
REMARK  219  A    between atoms: _531  and  _533
REMARK  220  A    between atoms: _533  and  _534
REMARK  221  A    between atoms: _533  and  _536
REMARK  222  A    between atoms: _536  and  _537
REMARK  223  A    between atoms: _542  and  _544
REMARK  224  A    between atoms: _544  and  _545
REMARK  225  A    between atoms: _544  and  _547
REMARK  226  A    between atoms: _547  and  _548
REMARK  227  A    between atoms: _558  and  _560
REMARK  228  A    between atoms: _560  and  _561
REMARK  229  A    between atoms: _560  and  _563
REMARK  230  A    between atoms: _566  and  _568
REMARK  231  A    between atoms: _568  and  _569
REMARK  232  A    between atoms: _568  and  _571
REMARK  233  A    between atoms: _571  and  _572
REMARK  234  A    between atoms: _575  and  _577
REMARK  235  A    between atoms: _577  and  _578
REMARK  236  A    between atoms: _577  and  _580
REMARK  237  A    between atoms: _580  and  _581
REMARK  238  A    between atoms: _581  and  _582
REMARK  239  A    between atoms: _584  and  _586
REMARK  240  A    between atoms: _586  and  _587
REMARK  241  A    between atoms: _586  and  _589
REMARK  242  A    between atoms: _589  and  _590
REMARK  243  A    between atoms: _593  and  _595
REMARK  244  A    between atoms: _595  and  _596
REMARK  245  A    between atoms: _595  and  _598
REMARK  246  A    between atoms: _598  and  _599
REMARK  247  A    between atoms: _602  and  _604
REMARK  248  A    between atoms: _604  and  _605
REMARK  249  A    between atoms: _607  and  _609
REMARK  250  A    between atoms: _609  and  _610
REMARK  251  A    between atoms: _609  and  _612
REMARK  252  A    between atoms: _612  and  _613
REMARK  253  A    between atoms: _615  and  _617
REMARK  254  A    between atoms: _617  and  _618
REMARK  255  A    between atoms: _617  and  _620
REMARK  256  A    between atoms: _620  and  _621
REMARK  257  A    between atoms: _631  and  _633
REMARK  258  A    between atoms: _633  and  _634
REMARK  259  A    between atoms: _633  and  _636
REMARK  260  A    between atoms: _636  and  _637
REMARK  261  A    between atoms: _639  and  _641
REMARK  262  A    between atoms: _641  and  _642
REMARK  263  A    between atoms: _641  and  _644
REMARK  264  A    between atoms: _644  and  _645
REMARK  265  A    between atoms: _648  and  _650
REMARK  266  A    between atoms: _650  and  _651
REMARK  267  A    between atoms: _654  and  _656
REMARK  268  A    between atoms: _656  and  _657
REMARK  269  A    between atoms: _656  and  _659
REMARK  270  A    between atoms: _659  and  _660
REMARK  271  A    between atoms: _662  and  _664
REMARK  272  A    between atoms: _664  and  _665
REMARK  273  A    between atoms: _664  and  _667
REMARK  274  A    between atoms: _667  and  _668
REMARK  275  A    between atoms: _668  and  _669
REMARK  276  A    between atoms: _673  and  _674
REMARK  277  A    between atoms: _679  and  _681
REMARK  278  A    between atoms: _681  and  _682
REMARK  279  A    between atoms: _681  and  _684
REMARK  280  A    between atoms: _684  and  _685
REMARK  281  A    between atoms: _687  and  _689
REMARK  282  A    between atoms: _689  and  _690
REMARK  283  A    between atoms: _689  and  _692
REMARK  284  A    between atoms: _692  and  _693
REMARK  285  A    between atoms: _693  and  _694
REMARK  286  A    between atoms: _699  and  _701
REMARK  287  A    between atoms: _701  and  _702
REMARK  288  A    between atoms: _701  and  _704
REMARK  289  A    between atoms: _704  and  _705
REMARK  290  A    between atoms: _705  and  _706
REMARK  291  A    between atoms: _711  and  _713
REMARK  292  A    between atoms: _713  and  _714
REMARK  293  A    between atoms: _713  and  _716
REMARK  294  A    between atoms: _716  and  _717
REMARK  295  A    between atoms: _720  and  _722
REMARK  296  A    between atoms: _722  and  _723
REMARK  297  A    between atoms: _722  and  _725
REMARK  298  A    between atoms: _725  and  _726
REMARK  299  A    between atoms: _729  and  _731
REMARK  300  A    between atoms: _731  and  _732
REMARK  301  A    between atoms: _731  and  _734
REMARK  302  A    between atoms: _734  and  _735
REMARK  303  A    between atoms: _741  and  _743
REMARK  304  A    between atoms: _743  and  _744
REMARK  305  A    between atoms: _743  and  _746
REMARK  306  A    between atoms: _746  and  _747
REMARK  307  A    between atoms: _752  and  _753
REMARK  308  A    between atoms: _755  and  _757
REMARK  309  A    between atoms: _757  and  _758
REMARK  310  A    between atoms: _757  and  _760
REMARK  311  A    between atoms: _760  and  _761
REMARK  312  A    between atoms: _767  and  _769
REMARK  313  A    between atoms: _769  and  _770
REMARK  314  A    between atoms: _769  and  _772
REMARK  315  A    between atoms: _772  and  _773
REMARK  316  A    between atoms: _778  and  _780
REMARK  317  A    between atoms: _780  and  _781
REMARK  318  A    between atoms: _780  and  _783
REMARK  319  A    between atoms: _783  and  _784
REMARK  320  A    between atoms: _784  and  _785
REMARK                            x       y       z     vdW  Elec       q    Type
REMARK                         _______ _______ _______ _____ _____    ______ ____
ROOT
ATOM      1  O   HOH     1      -2.374  54.076  22.346  0.00  0.00    +0.000 OA
ENDROOT
TORSDOF 0
REMARK  Name = ../refined-set-2016/3drf/3drf_pocket.pdb
REMARK  320 active torsions:
REMARK  status: ('A' for Active; 'I' for Inactive)
REMARK    1  A    between atoms: _1  and  _3
REMARK    2  A    between atoms: _3  and  _4
REMARK    3  A    between atoms: _3  and  _6
REMARK    4  A    between atoms: _6  and  _7
REMARK    5  A    between atoms: _12  and  _13
REMARK    6  A    between atoms: _15  and  _17
REMARK    7  A    between atoms: _17  and  _18
REMARK    8  A    between atoms: _17  and  _20
REMARK    9  A    between atoms: _20  and  _21
REMARK   10  A    between atoms: _21  and  _22
REMARK   11  A    between atoms: _27  and  _29
REMARK   12  A    between atoms: _29  and  _30
REMARK   13  A    between atoms: _29  and  _32
REMARK   14  A    between atoms: _32  and  _33
REMARK   15  A    between atoms: _35  and  _37
REMARK   16  A    between atoms: _37  and  _38
REMARK   17  A    between atoms: _37  and  _40
REMARK   18  A    between atoms: _40  and  _41
REMARK   19  A    between atoms: _44  and  _46
REMARK   20  A    between atoms: _46  and  _47
REMARK   21  A    between atoms: _46  and  _49
REMARK   22  A    between atoms: _49  and  _50
REMARK   23  A    between atoms: _52  and  _54
REMARK   24  A    between atoms: _54  and  _55
REMARK   25  A    between atoms: _54  and  _57
REMARK   26  A    between atoms: _57  and  _58
REMARK   27  A    between atoms: _60  and  _62
REMARK   28  A    between atoms: _62  and  _63
REMARK   29  A    between atoms: _65  and  _67
REMARK   30  A    between atoms: _67  and  _68
REMARK   31  A    between atoms: _67  and  _70
REMARK   32  A    between atoms: _70  and  _71
REMARK   33  A    between atoms: _73  and  _75
REMARK   34  A    between atoms: _75  and  _76
REMARK   35  A    between atoms: _75  and  _78
REMARK   36  A    between atoms: _78  and  _79
REMARK   37  A    between atoms: _84  and  _86
REMARK   38  A    between atoms: _86  and  _87
REMARK   39  A    between atoms: _86  and  _89
REMARK   40  A    between atoms: _89  and  _90
REMARK   41  A    between atoms: _93  and  _95
REMARK   42  A    between atoms: _95  and  _96
REMARK   43  A    between atoms: _99  and  _101
REMARK   44  A    between atoms: _101  and  _102
REMARK   45  A    between atoms: _101  and  _104
REMARK   46  A    between atoms: _104  and  _105
REMARK   47  A    between atoms: _108  and  _110
REMARK   48  A    between atoms: _110  and  _111
REMARK   49  A    between atoms: _110  and  _113
REMARK   50  A    between atoms: _113  and  _114
REMARK   51  A    between atoms: _120  and  _122
REMARK   52  A    between atoms: _122  and  _123
REMARK   53  A    between atoms: _126  and  _128
REMARK   54  A    between atoms: _128  and  _129
REMARK   55  A    between atoms: _128  and  _131
REMARK   56  A    between atoms: _131  and  _132
REMARK   57  A    between atoms: _135  and  _137
REMARK   58  A    between atoms: _137  and  _138
REMARK   59  A    between atoms: _140  and  _142
REMARK   60  A    between atoms: _142  and  _143
REMARK   61  A    between atoms: _142  and  _145
REMARK   62  A    between atoms: _145  and  _146
REMARK   63  A    between atoms: _146  and  _147
REMARK   64  A    between atoms: _152  and  _154
REMARK   65  A    between atoms: _154  and  _155
REMARK   66  A    between atoms: _157  and  _159
REMARK   67  A    between atoms: _159  and  _160
REMARK   68  A    between atoms: _159  and  _162
REMARK   69  A    between atoms: _162  and  _163
REMARK   70  A    between atoms: _166  and  _168
REMARK   71  A    between atoms: _168  and  _169
REMARK   72  A    between atoms: _168  and  _171
REMARK   73  A    between atoms: _171  and  _172
REMARK   74  A    between atoms: _178  and  _180
REMARK   75  A    between atoms: _180  and  _181
REMARK   76  A    between atoms: _180  and  _183
REMARK   77  A    between atoms: _183  and  _184
REMARK   78  A    between atoms: _187  and  _189
REMARK   79  A    between atoms: _189  and  _190
REMARK   80  A    between atoms: _189  and  _192
REMARK   81  A    between atoms: _192  and  _193
REMARK   82  A    between atoms: _199  and  _201
REMARK   83  A    between atoms: _201  and  _202
REMARK   84  A    between atoms: _201  and  _204
REMARK   85  A    between atoms: _204  and  _205
REMARK   86  A    between atoms: _211  and  _213
REMARK   87  A    between atoms: _213  and  _214
REMARK   88  A    between atoms: _213  and  _216
REMARK   89  A    between atoms: _216  and  _217
REMARK   90  A    between atoms: _220  and  _222
REMARK   91  A    between atoms: _222  and  _223
REMARK   92  A    between atoms: _222  and  _225
REMARK   93  A    between atoms: _225  and  _226
REMARK   94  A    between atoms: _229  and  _231
REMARK   95  A    between atoms: _231  and  _232
REMARK   96  A    between atoms: _231  and  _234
REMARK   97  A    between atoms: _234  and  _235
REMARK   98  A    between atoms: _235  and  _236
REMARK   99  A    between atoms: _236  and  _237
REMARK  100  A    between atoms: _246  and  _248
REMARK  101  A    between atoms: _248  and  _249
REMARK  102  A    between atoms: _248  and  _251
REMARK  103  A    between atoms: _251  and  _252
REMARK  104  A    between atoms: _255  and  _257
REMARK  105  A    between atoms: _257  and  _258
REMARK  106  A    between atoms: _257  and  _260
REMARK  107  A    between atoms: _260  and  _261
REMARK  108  A    between atoms: _263  and  _265
REMARK  109  A    between atoms: _265  and  _266
REMARK  110  A    between atoms: _265  and  _268
REMARK  111  A    between atoms: _268  and  _269
REMARK  112  A    between atoms: _269  and  _270
REMARK  113  A    between atoms: _275  and  _277
REMARK  114  A    between atoms: _277  and  _278
REMARK  115  A    between atoms: _277  and  _280
REMARK  116  A    between atoms: _280  and  _281
REMARK  117  A    between atoms: _283  and  _285
REMARK  118  A    between atoms: _285  and  _286
REMARK  119  A    between atoms: _288  and  _290
REMARK  120  A    between atoms: _290  and  _291
REMARK  121  A    between atoms: _290  and  _293
REMARK  122  A    between atoms: _293  and  _294
REMARK  123  A    between atoms: _299  and  _301
REMARK  124  A    between atoms: _301  and  _302
REMARK  125  A    between atoms: _304  and  _306
REMARK  126  A    between atoms: _306  and  _307
REMARK  127  A    between atoms: _306  and  _309
REMARK  128  A    between atoms: _309  and  _310
REMARK  129  A    between atoms: _315  and  _316
REMARK  130  A    between atoms: _318  and  _320
REMARK  131  A    between atoms: _320  and  _321
REMARK  132  A    between atoms: _320  and  _323
REMARK  133  A    between atoms: _323  and  _324
REMARK  134  A    between atoms: _330  and  _332
REMARK  135  A    between atoms: _332  and  _333
REMARK  136  A    between atoms: _332  and  _335
REMARK  137  A    between atoms: _335  and  _336
REMARK  138  A    between atoms: _339  and  _341
REMARK  139  A    between atoms: _341  and  _342
REMARK  140  A    between atoms: _341  and  _344
REMARK  141  A    between atoms: _344  and  _345
REMARK  142  A    between atoms: _345  and  _346
REMARK  143  A    between atoms: _349  and  _351
REMARK  144  A    between atoms: _351  and  _352
REMARK  145  A    between atoms: _351  and  _354
REMARK  146  A    between atoms: _354  and  _355
REMARK  147  A    between atoms: _358  and  _360
REMARK  148  A    between atoms: _360  and  _361
REMARK  149  A    between atoms: _360  and  _363
REMARK  150  A    between atoms: _363  and  _364
REMARK  151  A    between atoms: _367  and  _369
REMARK  152  A    between atoms: _369  and  _370
REMARK  153  A    between atoms: _372  and  _374
REMARK  154  A    between atoms: _374  and  _375
REMARK  155  A    between atoms: _374  and  _377
REMARK  156  A    between atoms: _380  and  _382
REMARK  157  A    between atoms: _382  and  _383
REMARK  158  A    between atoms: _382  and  _385
REMARK  159  A    between atoms: _385  and  _386
REMARK  160  A    between atoms: _388  and  _390
REMARK  161  A    between atoms: _390  and  _391
REMARK  162  A    between atoms: _390  and  _393
REMARK  163  A    between atoms: _393  and  _394
REMARK  164  A    between atoms: _394  and  _395
REMARK  165  A    between atoms: _397  and  _399
REMARK  166  A    between atoms: _399  and  _400
REMARK  167  A    between atoms: _399  and  _402
REMARK  168  A    between atoms: _402  and  _403
REMARK  169  A    between atoms: _408  and  _409
REMARK  170  A    between atoms: _411  and  _413
REMARK  171  A    between atoms: _413  and  _414
REMARK  172  A    between atoms: _413  and  _416
REMARK  173  A    between atoms: _416  and  _417
REMARK  174  A    between atoms: _420  and  _422
REMARK  175  A    between atoms: _422  and  _423
REMARK  176  A    between atoms: _422  and  _425
REMARK  177  A    between atoms: _425  and  _426
REMARK  178  A    between atoms: _428  and  _430
REMARK  179  A    between atoms: _430  and  _431
REMARK  180  A    between atoms: _430  and  _433
REMARK  181  A    between atoms: _433  and  _434
REMARK  182  A    between atoms: _437  and  _439
REMARK  183  A    between atoms: _439  and  _440
REMARK  184  A    between atoms: _439  and  _442
REMARK  185  A    between atoms: _442  and  _443
REMARK  186  A    between atoms: _448  and  _449
REMARK  187  A    between atoms: _451  and  _453
REMARK  188  A    between atoms: _453  and  _454
REMARK  189  A    between atoms: _453  and  _456
REMARK  190  A    between atoms: _456  and  _457
REMARK  191  A    between atoms: _459  and  _461
REMARK  192  A    between atoms: _461  and  _462
REMARK  193  A    between atoms: _461  and  _464
REMARK  194  A    between atoms: _464  and  _465
REMARK  195  A    between atoms: _471  and  _473
REMARK  196  A    between atoms: _473  and  _474
REMARK  197  A    between atoms: _473  and  _476
REMARK  198  A    between atoms: _476  and  _477
REMARK  199  A    between atoms: _477  and  _478
REMARK  200  A    between atoms: _478  and  _479
REMARK  201  A    between atoms: _488  and  _490
REMARK  202  A    between atoms: _490  and  _491
REMARK  203  A    between atoms: _490  and  _493
REMARK  204  A    between atoms: _496  and  _498
REMARK  205  A    between atoms: _498  and  _499
REMARK  206  A    between atoms: _501  and  _503
REMARK  207  A    between atoms: _503  and  _504
REMARK  208  A    between atoms: _503  and  _506
REMARK  209  A    between atoms: _506  and  _507
REMARK  210  A    between atoms: _510  and  _512
REMARK  211  A    between atoms: _512  and  _513
REMARK  212  A    between atoms: _512  and  _515
REMARK  213  A    between atoms: _515  and  _516
REMARK  214  A    between atoms: _516  and  _517
REMARK  215  A    between atoms: _519  and  _521
REMARK  216  A    between atoms: _521  and  _522
REMARK  217  A    between atoms: _521  and  _524
REMARK  218  A    between atoms: _524  and  _525
REMARK  219  A    between atoms: _531  and  _533
REMARK  220  A    between atoms: _533  and  _534
REMARK  221  A    between atoms: _533  and  _536
REMARK  222  A    between atoms: _536  and  _537
REMARK  223  A    between atoms: _542  and  _544
REMARK  224  A    between atoms: _544  and  _545
REMARK  225  A    between atoms: _544  and  _547
REMARK  226  A    between atoms: _547  and  _548
REMARK  227  A    between atoms: _558  and  _560
REMARK  228  A    between atoms: _560  and  _561
REMARK  229  A    between atoms: _560  and  _563
REMARK  230  A    between atoms: _566  and  _568
REMARK  231  A    between atoms: _568  and  _569
REMARK  232  A    between atoms: _568  and  _571
REMARK  233  A    between atoms: _571  and  _572
REMARK  234  A    between atoms: _575  and  _577
REMARK  235  A    between atoms: _577  and  _578
REMARK  236  A    between atoms: _577  and  _580
REMARK  237  A    between atoms: _580  and  _581
REMARK  238  A    between atoms: _581  and  _582
REMARK  239  A    between atoms: _584  and  _586
REMARK  240  A    between atoms: _586  and  _587
REMARK  241  A    between atoms: _586  and  _589
REMARK  242  A    between atoms: _589  and  _590
REMARK  243  A    between atoms: _593  and  _595
REMARK  244  A    between atoms: _595  and  _596
REMARK  245  A    between atoms: _595  and  _598
REMARK  246  A    between atoms: _598  and  _599
REMARK  247  A    between atoms: _602  and  _604
REMARK  248  A    between atoms: _604  and  _605
REMARK  249  A    between atoms: _607  and  _609
REMARK  250  A    between atoms: _609  and  _610
REMARK  251  A    between atoms: _609  and  _612
REMARK  252  A    between atoms: _612  and  _613
REMARK  253  A    between atoms: _615  and  _617
REMARK  254  A    between atoms: _617  and  _618
REMARK  255  A    between atoms: _617  and  _620
REMARK  256  A    between atoms: _620  and  _621
REMARK  257  A    between atoms: _631  and  _633
REMARK  258  A    between atoms: _633  and  _634
REMARK  259  A    between atoms: _633  and  _636
REMARK  260  A    between atoms: _636  and  _637
REMARK  261  A    between atoms: _639  and  _641
REMARK  262  A    between atoms: _641  and  _642
REMARK  263  A    between atoms: _641  and  _644
REMARK  264  A    between atoms: _644  and  _645
REMARK  265  A    between atoms: _648  and  _650
REMARK  266  A    between atoms: _650  and  _651
REMARK  267  A    between atoms: _654  and  _656
REMARK  268  A    between atoms: _656  and  _657
REMARK  269  A    between atoms: _656  and  _659
REMARK  270  A    between atoms: _659  and  _660
REMARK  271  A    between atoms: _662  and  _664
REMARK  272  A    between atoms: _664  and  _665
REMARK  273  A    between atoms: _664  and  _667
REMARK  274  A    between atoms: _667  and  _668
REMARK  275  A    between atoms: _668  and  _669
REMARK  276  A    between atoms: _673  and  _674
REMARK  277  A    between atoms: _679  and  _681
REMARK  278  A    between atoms: _681  and  _682
REMARK  279  A    between atoms: _681  and  _684
REMARK  280  A    between atoms: _684  and  _685
REMARK  281  A    between atoms: _687  and  _689
REMARK  282  A    between atoms: _689  and  _690
REMARK  283  A    between atoms: _689  and  _692
REMARK  284  A    between atoms: _692  and  _693
REMARK  285  A    between atoms: _693  and  _694
REMARK  286  A    between atoms: _699  and  _701
REMARK  287  A    between atoms: _701  and  _702
REMARK  288  A    between atoms: _701  and  _704
REMARK  289  A    between atoms: _704  and  _705
REMARK  290  A    between atoms: _705  and  _706
REMARK  291  A    between atoms: _711  and  _713
REMARK  292  A    between atoms: _713  and  _714
REMARK  293  A    between atoms: _713  and  _716
REMARK  294  A    between atoms: _716  and  _717
REMARK  295  A    between atoms: _720  and  _722
REMARK  296  A    between atoms: _722  and  _723
REMARK  297  A    between atoms: _722  and  _725
REMARK  298  A    between atoms: _725  and  _726
REMARK  299  A    between atoms: _729  and  _731
REMARK  300  A    between atoms: _731  and  _732
REMARK  301  A    between atoms: _731  and  _734
REMARK  302  A    between atoms: _734  and  _735
REMARK  303  A    between atoms: _741  and  _743
REMARK  304  A    between atoms: _743  and  _744
REMARK  305  A    between atoms: _743  and  _746
REMARK  306  A    between atoms: _746  and  _747
REMARK  307  A    between atoms: _752  and  _753
REMARK  308  A    between atoms: _755  and  _757
REMARK  309  A    between atoms: _757  and  _758
REMARK  310  A    between atoms: _757  and  _760
REMARK  311  A    between atoms: _760  and  _761
REMARK  312  A    between atoms: _767  and  _769
REMARK  313  A    between atoms: _769  and  _770
REMARK  314  A    between atoms: _769  and  _772
REMARK  315  A    between atoms: _772  and  _773
REMARK  316  A    between atoms: _778  and  _780
REMARK  317  A    between atoms: _780  and  _781
REMARK  318  A    between atoms: _780  and  _783
REMARK  319  A    between atoms: _783  and  _784
REMARK  320  A    between atoms: _784  and  _785
REMARK                            x       y       z     vdW  Elec       q    Type
REMARK                         _______ _______ _______ _____ _____    ______ ____
ROOT
ATOM      1  O   HOH     1       3.630  45.463  21.025  0.00  0.00    +0.000 OA
ENDROOT
TORSDOF 0
REMARK  Name = ../refined-set-2016/3drf/3drf_pocket.pdb
REMARK  320 active torsions:
REMARK  status: ('A' for Active; 'I' for Inactive)
REMARK    1  A    between atoms: _1  and  _3
REMARK    2  A    between atoms: _3  and  _4
REMARK    3  A    between atoms: _3  and  _6
REMARK    4  A    between atoms: _6  and  _7
REMARK    5  A    between atoms: _12  and  _13
REMARK    6  A    between atoms: _15  and  _17
REMARK    7  A    between atoms: _17  and  _18
REMARK    8  A    between atoms: _17  and  _20
REMARK    9  A    between atoms: _20  and  _21
REMARK   10  A    between atoms: _21  and  _22
REMARK   11  A    between atoms: _27  and  _29
REMARK   12  A    between atoms: _29  and  _30
REMARK   13  A    between atoms: _29  and  _32
REMARK   14  A    between atoms: _32  and  _33
REMARK   15  A    between atoms: _35  and  _37
REMARK   16  A    between atoms: _37  and  _38
REMARK   17  A    between atoms: _37  and  _40
REMARK   18  A    between atoms: _40  and  _41
REMARK   19  A    between atoms: _44  and  _46
REMARK   20  A    between atoms: _46  and  _47
REMARK   21  A    between atoms: _46  and  _49
REMARK   22  A    between atoms: _49  and  _50
REMARK   23  A    between atoms: _52  and  _54
REMARK   24  A    between atoms: _54  and  _55
REMARK   25  A    between atoms: _54  and  _57
REMARK   26  A    between atoms: _57  and  _58
REMARK   27  A    between atoms: _60  and  _62
REMARK   28  A    between atoms: _62  and  _63
REMARK   29  A    between atoms: _65  and  _67
REMARK   30  A    between atoms: _67  and  _68
REMARK   31  A    between atoms: _67  and  _70
REMARK   32  A    between atoms: _70  and  _71
REMARK   33  A    between atoms: _73  and  _75
REMARK   34  A    between atoms: _75  and  _76
REMARK   35  A    between atoms: _75  and  _78
REMARK   36  A    between atoms: _78  and  _79
REMARK   37  A    between atoms: _84  and  _86
REMARK   38  A    between atoms: _86  and  _87
REMARK   39  A    between atoms: _86  and  _89
REMARK   40  A    between atoms: _89  and  _90
REMARK   41  A    between atoms: _93  and  _95
REMARK   42  A    between atoms: _95  and  _96
REMARK   43  A    between atoms: _99  and  _101
REMARK   44  A    between atoms: _101  and  _102
REMARK   45  A    between atoms: _101  and  _104
REMARK   46  A    between atoms: _104  and  _105
REMARK   47  A    between atoms: _108  and  _110
REMARK   48  A    between atoms: _110  and  _111
REMARK   49  A    between atoms: _110  and  _113
REMARK   50  A    between atoms: _113  and  _114
REMARK   51  A    between atoms: _120  and  _122
REMARK   52  A    between atoms: _122  and  _123
REMARK   53  A    between atoms: _126  and  _128
REMARK   54  A    between atoms: _128  and  _129
REMARK   55  A    between atoms: _128  and  _131
REMARK   56  A    between atoms: _131  and  _132
REMARK   57  A    between atoms: _135  and  _137
REMARK   58  A    between atoms: _137  and  _138
REMARK   59  A    between atoms: _140  and  _142
REMARK   60  A    between atoms: _142  and  _143
REMARK   61  A    between atoms: _142  and  _145
REMARK   62  A    between atoms: _145  and  _146
REMARK   63  A    between atoms: _146  and  _147
REMARK   64  A    between atoms: _152  and  _154
REMARK   65  A    between atoms: _154  and  _155
REMARK   66  A    between atoms: _157  and  _159
REMARK   67  A    between atoms: _159  and  _160
REMARK   68  A    between atoms: _159  and  _162
REMARK   69  A    between atoms: _162  and  _163
REMARK   70  A    between atoms: _166  and  _168
REMARK   71  A    between atoms: _168  and  _169
REMARK   72  A    between atoms: _168  and  _171
REMARK   73  A    between atoms: _171  and  _172
REMARK   74  A    between atoms: _178  and  _180
REMARK   75  A    between atoms: _180  and  _181
REMARK   76  A    between atoms: _180  and  _183
REMARK   77  A    between atoms: _183  and  _184
REMARK   78  A    between atoms: _187  and  _189
REMARK   79  A    between atoms: _189  and  _190
REMARK   80  A    between atoms: _189  and  _192
REMARK   81  A    between atoms: _192  and  _193
REMARK   82  A    between atoms: _199  and  _201
REMARK   83  A    between atoms: _201  and  _202
REMARK   84  A    between atoms: _201  and  _204
REMARK   85  A    between atoms: _204  and  _205
REMARK   86  A    between atoms: _211  and  _213
REMARK   87  A    between atoms: _213  and  _214
REMARK   88  A    between atoms: _213  and  _216
REMARK   89  A    between atoms: _216  and  _217
REMARK   90  A    between atoms: _220  and  _222
REMARK   91  A    between atoms: _222  and  _223
REMARK   92  A    between atoms: _222  and  _225
REMARK   93  A    between atoms: _225  and  _226
REMARK   94  A    between atoms: _229  and  _231
REMARK   95  A    between atoms: _231  and  _232
REMARK   96  A    between atoms: _231  and  _234
REMARK   97  A    between atoms: _234  and  _235
REMARK   98  A    between atoms: _235  and  _236
REMARK   99  A    between atoms: _236  and  _237
REMARK  100  A    between atoms: _246  and  _248
REMARK  101  A    between atoms: _248  and  _249
REMARK  102  A    between atoms: _248  and  _251
REMARK  103  A    between atoms: _251  and  _252
REMARK  104  A    between atoms: _255  and  _257
REMARK  105  A    between atoms: _257  and  _258
REMARK  106  A    between atoms: _257  and  _260
REMARK  107  A    between atoms: _260  and  _261
REMARK  108  A    between atoms: _263  and  _265
REMARK  109  A    between atoms: _265  and  _266
REMARK  110  A    between atoms: _265  and  _268
REMARK  111  A    between atoms: _268  and  _269
REMARK  112  A    between atoms: _269  and  _270
REMARK  113  A    between atoms: _275  and  _277
REMARK  114  A    between atoms: _277  and  _278
REMARK  115  A    between atoms: _277  and  _280
REMARK  116  A    between atoms: _280  and  _281
REMARK  117  A    between atoms: _283  and  _285
REMARK  118  A    between atoms: _285  and  _286
REMARK  119  A    between atoms: _288  and  _290
REMARK  120  A    between atoms: _290  and  _291
REMARK  121  A    between atoms: _290  and  _293
REMARK  122  A    between atoms: _293  and  _294
REMARK  123  A    between atoms: _299  and  _301
REMARK  124  A    between atoms: _301  and  _302
REMARK  125  A    between atoms: _304  and  _306
REMARK  126  A    between atoms: _306  and  _307
REMARK  127  A    between atoms: _306  and  _309
REMARK  128  A    between atoms: _309  and  _310
REMARK  129  A    between atoms: _315  and  _316
REMARK  130  A    between atoms: _318  and  _320
REMARK  131  A    between atoms: _320  and  _321
REMARK  132  A    between atoms: _320  and  _323
REMARK  133  A    between atoms: _323  and  _324
REMARK  134  A    between atoms: _330  and  _332
REMARK  135  A    between atoms: _332  and  _333
REMARK  136  A    between atoms: _332  and  _335
REMARK  137  A    between atoms: _335  and  _336
REMARK  138  A    between atoms: _339  and  _341
REMARK  139  A    between atoms: _341  and  _342
REMARK  140  A    between atoms: _341  and  _344
REMARK  141  A    between atoms: _344  and  _345
REMARK  142  A    between atoms: _345  and  _346
REMARK  143  A    between atoms: _349  and  _351
REMARK  144  A    between atoms: _351  and  _352
REMARK  145  A    between atoms: _351  and  _354
REMARK  146  A    between atoms: _354  and  _355
REMARK  147  A    between atoms: _358  and  _360
REMARK  148  A    between atoms: _360  and  _361
REMARK  149  A    between atoms: _360  and  _363
REMARK  150  A    between atoms: _363  and  _364
REMARK  151  A    between atoms: _367  and  _369
REMARK  152  A    between atoms: _369  and  _370
REMARK  153  A    between atoms: _372  and  _374
REMARK  154  A    between atoms: _374  and  _375
REMARK  155  A    between atoms: _374  and  _377
REMARK  156  A    between atoms: _380  and  _382
REMARK  157  A    between atoms: _382  and  _383
REMARK  158  A    between atoms: _382  and  _385
REMARK  159  A    between atoms: _385  and  _386
REMARK  160  A    between atoms: _388  and  _390
REMARK  161  A    between atoms: _390  and  _391
REMARK  162  A    between atoms: _390  and  _393
REMARK  163  A    between atoms: _393  and  _394
REMARK  164  A    between atoms: _394  and  _395
REMARK  165  A    between atoms: _397  and  _399
REMARK  166  A    between atoms: _399  and  _400
REMARK  167  A    between atoms: _399  and  _402
REMARK  168  A    between atoms: _402  and  _403
REMARK  169  A    between atoms: _408  and  _409
REMARK  170  A    between atoms: _411  and  _413
REMARK  171  A    between atoms: _413  and  _414
REMARK  172  A    between atoms: _413  and  _416
REMARK  173  A    between atoms: _416  and  _417
REMARK  174  A    between atoms: _420  and  _422
REMARK  175  A    between atoms: _422  and  _423
REMARK  176  A    between atoms: _422  and  _425
REMARK  177  A    between atoms: _425  and  _426
REMARK  178  A    between atoms: _428  and  _430
REMARK  179  A    between atoms: _430  and  _431
REMARK  180  A    between atoms: _430  and  _433
REMARK  181  A    between atoms: _433  and  _434
REMARK  182  A    between atoms: _437  and  _439
REMARK  183  A    between atoms: _439  and  _440
REMARK  184  A    between atoms: _439  and  _442
REMARK  185  A    between atoms: _442  and  _443
REMARK  186  A    between atoms: _448  and  _449
REMARK  187  A    between atoms: _451  and  _453
REMARK  188  A    between atoms: _453  and  _454
REMARK  189  A    between atoms: _453  and  _456
REMARK  190  A    between atoms: _456  and  _457
REMARK  191  A    between atoms: _459  and  _461
REMARK  192  A    between atoms: _461  and  _462
REMARK  193  A    between atoms: _461  and  _464
REMARK  194  A    between atoms: _464  and  _465
REMARK  195  A    between atoms: _471  and  _473
REMARK  196  A    between atoms: _473  and  _474
REMARK  197  A    between atoms: _473  and  _476
REMARK  198  A    between atoms: _476  and  _477
REMARK  199  A    between atoms: _477  and  _478
REMARK  200  A    between atoms: _478  and  _479
REMARK  201  A    between atoms: _488  and  _490
REMARK  202  A    between atoms: _490  and  _491
REMARK  203  A    between atoms: _490  and  _493
REMARK  204  A    between atoms: _496  and  _498
REMARK  205  A    between atoms: _498  and  _499
REMARK  206  A    between atoms: _501  and  _503
REMARK  207  A    between atoms: _503  and  _504
REMARK  208  A    between atoms: _503  and  _506
REMARK  209  A    between atoms: _506  and  _507
REMARK  210  A    between atoms: _510  and  _512
REMARK  211  A    between atoms: _512  and  _513
REMARK  212  A    between atoms: _512  and  _515
REMARK  213  A    between atoms: _515  and  _516
REMARK  214  A    between atoms: _516  and  _517
REMARK  215  A    between atoms: _519  and  _521
REMARK  216  A    between atoms: _521  and  _522
REMARK  217  A    between atoms: _521  and  _524
REMARK  218  A    between atoms: _524  and  _525
REMARK  219  A    between atoms: _531  and  _533
REMARK  220  A    between atoms: _533  and  _534
REMARK  221  A    between atoms: _533  and  _536
REMARK  222  A    between atoms: _536  and  _537
REMARK  223  A    between atoms: _542  and  _544
REMARK  224  A    between atoms: _544  and  _545
REMARK  225  A    between atoms: _544  and  _547
REMARK  226  A    between atoms: _547  and  _548
REMARK  227  A    between atoms: _558  and  _560
REMARK  228  A    between atoms: _560  and  _561
REMARK  229  A    between atoms: _560  and  _563
REMARK  230  A    between atoms: _566  and  _568
REMARK  231  A    between atoms: _568  and  _569
REMARK  232  A    between atoms: _568  and  _571
REMARK  233  A    between atoms: _571  and  _572
REMARK  234  A    between atoms: _575  and  _577
REMARK  235  A    between atoms: _577  and  _578
REMARK  236  A    between atoms: _577  and  _580
REMARK  237  A    between atoms: _580  and  _581
REMARK  238  A    between atoms: _581  and  _582
REMARK  239  A    between atoms: _584  and  _586
REMARK  240  A    between atoms: _586  and  _587
REMARK  241  A    between atoms: _586  and  _589
REMARK  242  A    between atoms: _589  and  _590
REMARK  243  A    between atoms: _593  and  _595
REMARK  244  A    between atoms: _595  and  _596
REMARK  245  A    between atoms: _595  and  _598
REMARK  246  A    between atoms: _598  and  _599
REMARK  247  A    between atoms: _602  and  _604
REMARK  248  A    between atoms: _604  and  _605
REMARK  249  A    between atoms: _607  and  _609
REMARK  250  A    between atoms: _609  and  _610
REMARK  251  A    between atoms: _609  and  _612
REMARK  252  A    between atoms: _612  and  _613
REMARK  253  A    between atoms: _615  and  _617
REMARK  254  A    between atoms: _617  and  _618
REMARK  255  A    between atoms: _617  and  _620
REMARK  256  A    between atoms: _620  and  _621
REMARK  257  A    between atoms: _631  and  _633
REMARK  258  A    between atoms: _633  and  _634
REMARK  259  A    between atoms: _633  and  _636
REMARK  260  A    between atoms: _636  and  _637
REMARK  261  A    between atoms: _639  and  _641
REMARK  262  A    between atoms: _641  and  _642
REMARK  263  A    between atoms: _641  and  _644
REMARK  264  A    between atoms: _644  and  _645
REMARK  265  A    between atoms: _648  and  _650
REMARK  266  A    between atoms: _650  and  _651
REMARK  267  A    between atoms: _654  and  _656
REMARK  268  A    between atoms: _656  and  _657
REMARK  269  A    between atoms: _656  and  _659
REMARK  270  A    between atoms: _659  and  _660
REMARK  271  A    between atoms: _662  and  _664
REMARK  272  A    between atoms: _664  and  _665
REMARK  273  A    between atoms: _664  and  _667
REMARK  274  A    between atoms: _667  and  _668
REMARK  275  A    between atoms: _668  and  _669
REMARK  276  A    between atoms: _673  and  _674
REMARK  277  A    between atoms: _679  and  _681
REMARK  278  A    between atoms: _681  and  _682
REMARK  279  A    between atoms: _681  and  _684
REMARK  280  A    between atoms: _684  and  _685
REMARK  281  A    between atoms: _687  and  _689
REMARK  282  A    between atoms: _689  and  _690
REMARK  283  A    between atoms: _689  and  _692
REMARK  284  A    between atoms: _692  and  _693
REMARK  285  A    between atoms: _693  and  _694
REMARK  286  A    between atoms: _699  and  _701
REMARK  287  A    between atoms: _701  and  _702
REMARK  288  A    between atoms: _701  and  _704
REMARK  289  A    between atoms: _704  and  _705
REMARK  290  A    between atoms: _705  and  _706
REMARK  291  A    between atoms: _711  and  _713
REMARK  292  A    between atoms: _713  and  _714
REMARK  293  A    between atoms: _713  and  _716
REMARK  294  A    between atoms: _716  and  _717
REMARK  295  A    between atoms: _720  and  _722
REMARK  296  A    between atoms: _722  and  _723
REMARK  297  A    between atoms: _722  and  _725
REMARK  298  A    between atoms: _725  and  _726
REMARK  299  A    between atoms: _729  and  _731
REMARK  300  A    between atoms: _731  and  _732
REMARK  301  A    between atoms: _731  and  _734
REMARK  302  A    between atoms: _734  and  _735
REMARK  303  A    between atoms: _741  and  _743
REMARK  304  A    between atoms: _743  and  _744
REMARK  305  A    between atoms: _743  and  _746
REMARK  306  A    between atoms: _746  and  _747
REMARK  307  A    between atoms: _752  and  _753
REMARK  308  A    between atoms: _755  and  _757
REMARK  309  A    between atoms: _757  and  _758
REMARK  310  A    between atoms: _757  and  _760
REMARK  311  A    between atoms: _760  and  _761
REMARK  312  A    between atoms: _767  and  _769
REMARK  313  A    between atoms: _769  and  _770
REMARK  314  A    between atoms: _769  and  _772
REMARK  315  A    between atoms: _772  and  _773
REMARK  316  A    between atoms: _778  and  _780
REMARK  317  A    between atoms: _780  and  _781
REMARK  318  A    between atoms: _780  and  _783
REMARK  319  A    between atoms: _783  and  _784
REMARK  320  A    between atoms: _784  and  _785
REMARK                            x       y       z     vdW  Elec       q    Type
REMARK                         _______ _______ _______ _____ _____    ______ ____
ROOT
ATOM      1  O   HOH     1      -4.864  47.403  33.050  0.00  0.00    +0.000 OA
ENDROOT
TORSDOF 0
REMARK  Name = ../refined-set-2016/3drf/3drf_pocket.pdb
REMARK  320 active torsions:
REMARK  status: ('A' for Active; 'I' for Inactive)
REMARK    1  A    between atoms: _1  and  _3
REMARK    2  A    between atoms: _3  and  _4
REMARK    3  A    between atoms: _3  and  _6
REMARK    4  A    between atoms: _6  and  _7
REMARK    5  A    between atoms: _12  and  _13
REMARK    6  A    between atoms: _15  and  _17
REMARK    7  A    between atoms: _17  and  _18
REMARK    8  A    between atoms: _17  and  _20
REMARK    9  A    between atoms: _20  and  _21
REMARK   10  A    between atoms: _21  and  _22
REMARK   11  A    between atoms: _27  and  _29
REMARK   12  A    between atoms: _29  and  _30
REMARK   13  A    between atoms: _29  and  _32
REMARK   14  A    between atoms: _32  and  _33
REMARK   15  A    between atoms: _35  and  _37
REMARK   16  A    between atoms: _37  and  _38
REMARK   17  A    between atoms: _37  and  _40
REMARK   18  A    between atoms: _40  and  _41
REMARK   19  A    between atoms: _44  and  _46
REMARK   20  A    between atoms: _46  and  _47
REMARK   21  A    between atoms: _46  and  _49
REMARK   22  A    between atoms: _49  and  _50
REMARK   23  A    between atoms: _52  and  _54
REMARK   24  A    between atoms: _54  and  _55
REMARK   25  A    between atoms: _54  and  _57
REMARK   26  A    between atoms: _57  and  _58
REMARK   27  A    between atoms: _60  and  _62
REMARK   28  A    between atoms: _62  and  _63
REMARK   29  A    between atoms: _65  and  _67
REMARK   30  A    between atoms: _67  and  _68
REMARK   31  A    between atoms: _67  and  _70
REMARK   32  A    between atoms: _70  and  _71
REMARK   33  A    between atoms: _73  and  _75
REMARK   34  A    between atoms: _75  and  _76
REMARK   35  A    between atoms: _75  and  _78
REMARK   36  A    between atoms: _78  and  _79
REMARK   37  A    between atoms: _84  and  _86
REMARK   38  A    between atoms: _86  and  _87
REMARK   39  A    between atoms: _86  and  _89
REMARK   40  A    between atoms: _89  and  _90
REMARK   41  A    between atoms: _93  and  _95
REMARK   42  A    between atoms: _95  and  _96
REMARK   43  A    between atoms: _99  and  _101
REMARK   44  A    between atoms: _101  and  _102
REMARK   45  A    between atoms: _101  and  _104
REMARK   46  A    between atoms: _104  and  _105
REMARK   47  A    between atoms: _108  and  _110
REMARK   48  A    between atoms: _110  and  _111
REMARK   49  A    between atoms: _110  and  _113
REMARK   50  A    between atoms: _113  and  _114
REMARK   51  A    between atoms: _120  and  _122
REMARK   52  A    between atoms: _122  and  _123
REMARK   53  A    between atoms: _126  and  _128
REMARK   54  A    between atoms: _128  and  _129
REMARK   55  A    between atoms: _128  and  _131
REMARK   56  A    between atoms: _131  and  _132
REMARK   57  A    between atoms: _135  and  _137
REMARK   58  A    between atoms: _137  and  _138
REMARK   59  A    between atoms: _140  and  _142
REMARK   60  A    between atoms: _142  and  _143
REMARK   61  A    between atoms: _142  and  _145
REMARK   62  A    between atoms: _145  and  _146
REMARK   63  A    between atoms: _146  and  _147
REMARK   64  A    between atoms: _152  and  _154
REMARK   65  A    between atoms: _154  and  _155
REMARK   66  A    between atoms: _157  and  _159
REMARK   67  A    between atoms: _159  and  _160
REMARK   68  A    between atoms: _159  and  _162
REMARK   69  A    between atoms: _162  and  _163
REMARK   70  A    between atoms: _166  and  _168
REMARK   71  A    between atoms: _168  and  _169
REMARK   72  A    between atoms: _168  and  _171
REMARK   73  A    between atoms: _171  and  _172
REMARK   74  A    between atoms: _178  and  _180
REMARK   75  A    between atoms: _180  and  _181
REMARK   76  A    between atoms: _180  and  _183
REMARK   77  A    between atoms: _183  and  _184
REMARK   78  A    between atoms: _187  and  _189
REMARK   79  A    between atoms: _189  and  _190
REMARK   80  A    between atoms: _189  and  _192
REMARK   81  A    between atoms: _192  and  _193
REMARK   82  A    between atoms: _199  and  _201
REMARK   83  A    between atoms: _201  and  _202
REMARK   84  A    between atoms: _201  and  _204
REMARK   85  A    between atoms: _204  and  _205
REMARK   86  A    between atoms: _211  and  _213
REMARK   87  A    between atoms: _213  and  _214
REMARK   88  A    between atoms: _213  and  _216
REMARK   89  A    between atoms: _216  and  _217
REMARK   90  A    between atoms: _220  and  _222
REMARK   91  A    between atoms: _222  and  _223
REMARK   92  A    between atoms: _222  and  _225
REMARK   93  A    between atoms: _225  and  _226
REMARK   94  A    between atoms: _229  and  _231
REMARK   95  A    between atoms: _231  and  _232
REMARK   96  A    between atoms: _231  and  _234
REMARK   97  A    between atoms: _234  and  _235
REMARK   98  A    between atoms: _235  and  _236
REMARK   99  A    between atoms: _236  and  _237
REMARK  100  A    between atoms: _246  and  _248
REMARK  101  A    between atoms: _248  and  _249
REMARK  102  A    between atoms: _248  and  _251
REMARK  103  A    between atoms: _251  and  _252
REMARK  104  A    between atoms: _255  and  _257
REMARK  105  A    between atoms: _257  and  _258
REMARK  106  A    between atoms: _257  and  _260
REMARK  107  A    between atoms: _260  and  _261
REMARK  108  A    between atoms: _263  and  _265
REMARK  109  A    between atoms: _265  and  _266
REMARK  110  A    between atoms: _265  and  _268
REMARK  111  A    between atoms: _268  and  _269
REMARK  112  A    between atoms: _269  and  _270
REMARK  113  A    between atoms: _275  and  _277
REMARK  114  A    between atoms: _277  and  _278
REMARK  115  A    between atoms: _277  and  _280
REMARK  116  A    between atoms: _280  and  _281
REMARK  117  A    between atoms: _283  and  _285
REMARK  118  A    between atoms: _285  and  _286
REMARK  119  A    between atoms: _288  and  _290
REMARK  120  A    between atoms: _290  and  _291
REMARK  121  A    between atoms: _290  and  _293
REMARK  122  A    between atoms: _293  and  _294
REMARK  123  A    between atoms: _299  and  _301
REMARK  124  A    between atoms: _301  and  _302
REMARK  125  A    between atoms: _304  and  _306
REMARK  126  A    between atoms: _306  and  _307
REMARK  127  A    between atoms: _306  and  _309
REMARK  128  A    between atoms: _309  and  _310
REMARK  129  A    between atoms: _315  and  _316
REMARK  130  A    between atoms: _318  and  _320
REMARK  131  A    between atoms: _320  and  _321
REMARK  132  A    between atoms: _320  and  _323
REMARK  133  A    between atoms: _323  and  _324
REMARK  134  A    between atoms: _330  and  _332
REMARK  135  A    between atoms: _332  and  _333
REMARK  136  A    between atoms: _332  and  _335
REMARK  137  A    between atoms: _335  and  _336
REMARK  138  A    between atoms: _339  and  _341
REMARK  139  A    between atoms: _341  and  _342
REMARK  140  A    between atoms: _341  and  _344
REMARK  141  A    between atoms: _344  and  _345
REMARK  142  A    between atoms: _345  and  _346
REMARK  143  A    between atoms: _349  and  _351
REMARK  144  A    between atoms: _351  and  _352
REMARK  145  A    between atoms: _351  and  _354
REMARK  146  A    between atoms: _354  and  _355
REMARK  147  A    between atoms: _358  and  _360
REMARK  148  A    between atoms: _360  and  _361
REMARK  149  A    between atoms: _360  and  _363
REMARK  150  A    between atoms: _363  and  _364
REMARK  151  A    between atoms: _367  and  _369
REMARK  152  A    between atoms: _369  and  _370
REMARK  153  A    between atoms: _372  and  _374
REMARK  154  A    between atoms: _374  and  _375
REMARK  155  A    between atoms: _374  and  _377
REMARK  156  A    between atoms: _380  and  _382
REMARK  157  A    between atoms: _382  and  _383
REMARK  158  A    between atoms: _382  and  _385
REMARK  159  A    between atoms: _385  and  _386
REMARK  160  A    between atoms: _388  and  _390
REMARK  161  A    between atoms: _390  and  _391
REMARK  162  A    between atoms: _390  and  _393
REMARK  163  A    between atoms: _393  and  _394
REMARK  164  A    between atoms: _394  and  _395
REMARK  165  A    between atoms: _397  and  _399
REMARK  166  A    between atoms: _399  and  _400
REMARK  167  A    between atoms: _399  and  _402
REMARK  168  A    between atoms: _402  and  _403
REMARK  169  A    between atoms: _408  and  _409
REMARK  170  A    between atoms: _411  and  _413
REMARK  171  A    between atoms: _413  and  _414
REMARK  172  A    between atoms: _413  and  _416
REMARK  173  A    between atoms: _416  and  _417
REMARK  174  A    between atoms: _420  and  _422
REMARK  175  A    between atoms: _422  and  _423
REMARK  176  A    between atoms: _422  and  _425
REMARK  177  A    between atoms: _425  and  _426
REMARK  178  A    between atoms: _428  and  _430
REMARK  179  A    between atoms: _430  and  _431
REMARK  180  A    between atoms: _430  and  _433
REMARK  181  A    between atoms: _433  and  _434
REMARK  182  A    between atoms: _437  and  _439
REMARK  183  A    between atoms: _439  and  _440
REMARK  184  A    between atoms: _439  and  _442
REMARK  185  A    between atoms: _442  and  _443
REMARK  186  A    between atoms: _448  and  _449
REMARK  187  A    between atoms: _451  and  _453
REMARK  188  A    between atoms: _453  and  _454
REMARK  189  A    between atoms: _453  and  _456
REMARK  190  A    between atoms: _456  and  _457
REMARK  191  A    between atoms: _459  and  _461
REMARK  192  A    between atoms: _461  and  _462
REMARK  193  A    between atoms: _461  and  _464
REMARK  194  A    between atoms: _464  and  _465
REMARK  195  A    between atoms: _471  and  _473
REMARK  196  A    between atoms: _473  and  _474
REMARK  197  A    between atoms: _473  and  _476
REMARK  198  A    between atoms: _476  and  _477
REMARK  199  A    between atoms: _477  and  _478
REMARK  200  A    between atoms: _478  and  _479
REMARK  201  A    between atoms: _488  and  _490
REMARK  202  A    between atoms: _490  and  _491
REMARK  203  A    between atoms: _490  and  _493
REMARK  204  A    between atoms: _496  and  _498
REMARK  205  A    between atoms: _498  and  _499
REMARK  206  A    between atoms: _501  and  _503
REMARK  207  A    between atoms: _503  and  _504
REMARK  208  A    between atoms: _503  and  _506
REMARK  209  A    between atoms: _506  and  _507
REMARK  210  A    between atoms: _510  and  _512
REMARK  211  A    between atoms: _512  and  _513
REMARK  212  A    between atoms: _512  and  _515
REMARK  213  A    between atoms: _515  and  _516
REMARK  214  A    between atoms: _516  and  _517
REMARK  215  A    between atoms: _519  and  _521
REMARK  216  A    between atoms: _521  and  _522
REMARK  217  A    between atoms: _521  and  _524
REMARK  218  A    between atoms: _524  and  _525
REMARK  219  A    between atoms: _531  and  _533
REMARK  220  A    between atoms: _533  and  _534
REMARK  221  A    between atoms: _533  and  _536
REMARK  222  A    between atoms: _536  and  _537
REMARK  223  A    between atoms: _542  and  _544
REMARK  224  A    between atoms: _544  and  _545
REMARK  225  A    between atoms: _544  and  _547
REMARK  226  A    between atoms: _547  and  _548
REMARK  227  A    between atoms: _558  and  _560
REMARK  228  A    between atoms: _560  and  _561
REMARK  229  A    between atoms: _560  and  _563
REMARK  230  A    between atoms: _566  and  _568
REMARK  231  A    between atoms: _568  and  _569
REMARK  232  A    between atoms: _568  and  _571
REMARK  233  A    between atoms: _571  and  _572
REMARK  234  A    between atoms: _575  and  _577
REMARK  235  A    between atoms: _577  and  _578
REMARK  236  A    between atoms: _577  and  _580
REMARK  237  A    between atoms: _580  and  _581
REMARK  238  A    between atoms: _581  and  _582
REMARK  239  A    between atoms: _584  and  _586
REMARK  240  A    between atoms: _586  and  _587
REMARK  241  A    between atoms: _586  and  _589
REMARK  242  A    between atoms: _589  and  _590
REMARK  243  A    between atoms: _593  and  _595
REMARK  244  A    between atoms: _595  and  _596
REMARK  245  A    between atoms: _595  and  _598
REMARK  246  A    between atoms: _598  and  _599
REMARK  247  A    between atoms: _602  and  _604
REMARK  248  A    between atoms: _604  and  _605
REMARK  249  A    between atoms: _607  and  _609
REMARK  250  A    between atoms: _609  and  _610
REMARK  251  A    between atoms: _609  and  _612
REMARK  252  A    between atoms: _612  and  _613
REMARK  253  A    between atoms: _615  and  _617
REMARK  254  A    between atoms: _617  and  _618
REMARK  255  A    between atoms: _617  and  _620
REMARK  256  A    between atoms: _620  and  _621
REMARK  257  A    between atoms: _631  and  _633
REMARK  258  A    between atoms: _633  and  _634
REMARK  259  A    between atoms: _633  and  _636
REMARK  260  A    between atoms: _636  and  _637
REMARK  261  A    between atoms: _639  and  _641
REMARK  262  A    between atoms: _641  and  _642
REMARK  263  A    between atoms: _641  and  _644
REMARK  264  A    between atoms: _644  and  _645
REMARK  265  A    between atoms: _648  and  _650
REMARK  266  A    between atoms: _650  and  _651
REMARK  267  A    between atoms: _654  and  _656
REMARK  268  A    between atoms: _656  and  _657
REMARK  269  A    between atoms: _656  and  _659
REMARK  270  A    between atoms: _659  and  _660
REMARK  271  A    between atoms: _662  and  _664
REMARK  272  A    between atoms: _664  and  _665
REMARK  273  A    between atoms: _664  and  _667
REMARK  274  A    between atoms: _667  and  _668
REMARK  275  A    between atoms: _668  and  _669
REMARK  276  A    between atoms: _673  and  _674
REMARK  277  A    between atoms: _679  and  _681
REMARK  278  A    between atoms: _681  and  _682
REMARK  279  A    between atoms: _681  and  _684
REMARK  280  A    between atoms: _684  and  _685
REMARK  281  A    between atoms: _687  and  _689
REMARK  282  A    between atoms: _689  and  _690
REMARK  283  A    between atoms: _689  and  _692
REMARK  284  A    between atoms: _692  and  _693
REMARK  285  A    between atoms: _693  and  _694
REMARK  286  A    between atoms: _699  and  _701
REMARK  287  A    between atoms: _701  and  _702
REMARK  288  A    between atoms: _701  and  _704
REMARK  289  A    between atoms: _704  and  _705
REMARK  290  A    between atoms: _705  and  _706
REMARK  291  A    between atoms: _711  and  _713
REMARK  292  A    between atoms: _713  and  _714
REMARK  293  A    between atoms: _713  and  _716
REMARK  294  A    between atoms: _716  and  _717
REMARK  295  A    between atoms: _720  and  _722
REMARK  296  A    between atoms: _722  and  _723
REMARK  297  A    between atoms: _722  and  _725
REMARK  298  A    between atoms: _725  and  _726
REMARK  299  A    between atoms: _729  and  _731
REMARK  300  A    between atoms: _731  and  _732
REMARK  301  A    between atoms: _731  and  _734
REMARK  302  A    between atoms: _734  and  _735
REMARK  303  A    between atoms: _741  and  _743
REMARK  304  A    between atoms: _743  and  _744
REMARK  305  A    between atoms: _743  and  _746
REMARK  306  A    between atoms: _746  and  _747
REMARK  307  A    between atoms: _752  and  _753
REMARK  308  A    between atoms: _755  and  _757
REMARK  309  A    between atoms: _757  and  _758
REMARK  310  A    between atoms: _757  and  _760
REMARK  311  A    between atoms: _760  and  _761
REMARK  312  A    between atoms: _767  and  _769
REMARK  313  A    between atoms: _769  and  _770
REMARK  314  A    between atoms: _769  and  _772
REMARK  315  A    between atoms: _772  and  _773
REMARK  316  A    between atoms: _778  and  _780
REMARK  317  A    between atoms: _780  and  _781
REMARK  318  A    between atoms: _780  and  _783
REMARK  319  A    between atoms: _783  and  _784
REMARK  320  A    between atoms: _784  and  _785
REMARK                            x       y       z     vdW  Elec       q    Type
REMARK                         _______ _______ _______ _____ _____    ______ ____
ROOT
ATOM      1  O   HOH     1      11.454  47.360  18.854  0.00  0.00    +0.000 OA
ENDROOT
TORSDOF 0
REMARK  Name = ../refined-set-2016/3drf/3drf_pocket.pdb
REMARK  320 active torsions:
REMARK  status: ('A' for Active; 'I' for Inactive)
REMARK    1  A    between atoms: _1  and  _3
REMARK    2  A    between atoms: _3  and  _4
REMARK    3  A    between atoms: _3  and  _6
REMARK    4  A    between atoms: _6  and  _7
REMARK    5  A    between atoms: _12  and  _13
REMARK    6  A    between atoms: _15  and  _17
REMARK    7  A    between atoms: _17  and  _18
REMARK    8  A    between atoms: _17  and  _20
REMARK    9  A    between atoms: _20  and  _21
REMARK   10  A    between atoms: _21  and  _22
REMARK   11  A    between atoms: _27  and  _29
REMARK   12  A    between atoms: _29  and  _30
REMARK   13  A    between atoms: _29  and  _32
REMARK   14  A    between atoms: _32  and  _33
REMARK   15  A    between atoms: _35  and  _37
REMARK   16  A    between atoms: _37  and  _38
REMARK   17  A    between atoms: _37  and  _40
REMARK   18  A    between atoms: _40  and  _41
REMARK   19  A    between atoms: _44  and  _46
REMARK   20  A    between atoms: _46  and  _47
REMARK   21  A    between atoms: _46  and  _49
REMARK   22  A    between atoms: _49  and  _50
REMARK   23  A    between atoms: _52  and  _54
REMARK   24  A    between atoms: _54  and  _55
REMARK   25  A    between atoms: _54  and  _57
REMARK   26  A    between atoms: _57  and  _58
REMARK   27  A    between atoms: _60  and  _62
REMARK   28  A    between atoms: _62  and  _63
REMARK   29  A    between atoms: _65  and  _67
REMARK   30  A    between atoms: _67  and  _68
REMARK   31  A    between atoms: _67  and  _70
REMARK   32  A    between atoms: _70  and  _71
REMARK   33  A    between atoms: _73  and  _75
REMARK   34  A    between atoms: _75  and  _76
REMARK   35  A    between atoms: _75  and  _78
REMARK   36  A    between atoms: _78  and  _79
REMARK   37  A    between atoms: _84  and  _86
REMARK   38  A    between atoms: _86  and  _87
REMARK   39  A    between atoms: _86  and  _89
REMARK   40  A    between atoms: _89  and  _90
REMARK   41  A    between atoms: _93  and  _95
REMARK   42  A    between atoms: _95  and  _96
REMARK   43  A    between atoms: _99  and  _101
REMARK   44  A    between atoms: _101  and  _102
REMARK   45  A    between atoms: _101  and  _104
REMARK   46  A    between atoms: _104  and  _105
REMARK   47  A    between atoms: _108  and  _110
REMARK   48  A    between atoms: _110  and  _111
REMARK   49  A    between atoms: _110  and  _113
REMARK   50  A    between atoms: _113  and  _114
REMARK   51  A    between atoms: _120  and  _122
REMARK   52  A    between atoms: _122  and  _123
REMARK   53  A    between atoms: _126  and  _128
REMARK   54  A    between atoms: _128  and  _129
REMARK   55  A    between atoms: _128  and  _131
REMARK   56  A    between atoms: _131  and  _132
REMARK   57  A    between atoms: _135  and  _137
REMARK   58  A    between atoms: _137  and  _138
REMARK   59  A    between atoms: _140  and  _142
REMARK   60  A    between atoms: _142  and  _143
REMARK   61  A    between atoms: _142  and  _145
REMARK   62  A    between atoms: _145  and  _146
REMARK   63  A    between atoms: _146  and  _147
REMARK   64  A    between atoms: _152  and  _154
REMARK   65  A    between atoms: _154  and  _155
REMARK   66  A    between atoms: _157  and  _159
REMARK   67  A    between atoms: _159  and  _160
REMARK   68  A    between atoms: _159  and  _162
REMARK   69  A    between atoms: _162  and  _163
REMARK   70  A    between atoms: _166  and  _168
REMARK   71  A    between atoms: _168  and  _169
REMARK   72  A    between atoms: _168  and  _171
REMARK   73  A    between atoms: _171  and  _172
REMARK   74  A    between atoms: _178  and  _180
REMARK   75  A    between atoms: _180  and  _181
REMARK   76  A    between atoms: _180  and  _183
REMARK   77  A    between atoms: _183  and  _184
REMARK   78  A    between atoms: _187  and  _189
REMARK   79  A    between atoms: _189  and  _190
REMARK   80  A    between atoms: _189  and  _192
REMARK   81  A    between atoms: _192  and  _193
REMARK   82  A    between atoms: _199  and  _201
REMARK   83  A    between atoms: _201  and  _202
REMARK   84  A    between atoms: _201  and  _204
REMARK   85  A    between atoms: _204  and  _205
REMARK   86  A    between atoms: _211  and  _213
REMARK   87  A    between atoms: _213  and  _214
REMARK   88  A    between atoms: _213  and  _216
REMARK   89  A    between atoms: _216  and  _217
REMARK   90  A    between atoms: _220  and  _222
REMARK   91  A    between atoms: _222  and  _223
REMARK   92  A    between atoms: _222  and  _225
REMARK   93  A    between atoms: _225  and  _226
REMARK   94  A    between atoms: _229  and  _231
REMARK   95  A    between atoms: _231  and  _232
REMARK   96  A    between atoms: _231  and  _234
REMARK   97  A    between atoms: _234  and  _235
REMARK   98  A    between atoms: _235  and  _236
REMARK   99  A    between atoms: _236  and  _237
REMARK  100  A    between atoms: _246  and  _248
REMARK  101  A    between atoms: _248  and  _249
REMARK  102  A    between atoms: _248  and  _251
REMARK  103  A    between atoms: _251  and  _252
REMARK  104  A    between atoms: _255  and  _257
REMARK  105  A    between atoms: _257  and  _258
REMARK  106  A    between atoms: _257  and  _260
REMARK  107  A    between atoms: _260  and  _261
REMARK  108  A    between atoms: _263  and  _265
REMARK  109  A    between atoms: _265  and  _266
REMARK  110  A    between atoms: _265  and  _268
REMARK  111  A    between atoms: _268  and  _269
REMARK  112  A    between atoms: _269  and  _270
REMARK  113  A    between atoms: _275  and  _277
REMARK  114  A    between atoms: _277  and  _278
REMARK  115  A    between atoms: _277  and  _280
REMARK  116  A    between atoms: _280  and  _281
REMARK  117  A    between atoms: _283  and  _285
REMARK  118  A    between atoms: _285  and  _286
REMARK  119  A    between atoms: _288  and  _290
REMARK  120  A    between atoms: _290  and  _291
REMARK  121  A    between atoms: _290  and  _293
REMARK  122  A    between atoms: _293  and  _294
REMARK  123  A    between atoms: _299  and  _301
REMARK  124  A    between atoms: _301  and  _302
REMARK  125  A    between atoms: _304  and  _306
REMARK  126  A    between atoms: _306  and  _307
REMARK  127  A    between atoms: _306  and  _309
REMARK  128  A    between atoms: _309  and  _310
REMARK  129  A    between atoms: _315  and  _316
REMARK  130  A    between atoms: _318  and  _320
REMARK  131  A    between atoms: _320  and  _321
REMARK  132  A    between atoms: _320  and  _323
REMARK  133  A    between atoms: _323  and  _324
REMARK  134  A    between atoms: _330  and  _332
REMARK  135  A    between atoms: _332  and  _333
REMARK  136  A    between atoms: _332  and  _335
REMARK  137  A    between atoms: _335  and  _336
REMARK  138  A    between atoms: _339  and  _341
REMARK  139  A    between atoms: _341  and  _342
REMARK  140  A    between atoms: _341  and  _344
REMARK  141  A    between atoms: _344  and  _345
REMARK  142  A    between atoms: _345  and  _346
REMARK  143  A    between atoms: _349  and  _351
REMARK  144  A    between atoms: _351  and  _352
REMARK  145  A    between atoms: _351  and  _354
REMARK  146  A    between atoms: _354  and  _355
REMARK  147  A    between atoms: _358  and  _360
REMARK  148  A    between atoms: _360  and  _361
REMARK  149  A    between atoms: _360  and  _363
REMARK  150  A    between atoms: _363  and  _364
REMARK  151  A    between atoms: _367  and  _369
REMARK  152  A    between atoms: _369  and  _370
REMARK  153  A    between atoms: _372  and  _374
REMARK  154  A    between atoms: _374  and  _375
REMARK  155  A    between atoms: _374  and  _377
REMARK  156  A    between atoms: _380  and  _382
REMARK  157  A    between atoms: _382  and  _383
REMARK  158  A    between atoms: _382  and  _385
REMARK  159  A    between atoms: _385  and  _386
REMARK  160  A    between atoms: _388  and  _390
REMARK  161  A    between atoms: _390  and  _391
REMARK  162  A    between atoms: _390  and  _393
REMARK  163  A    between atoms: _393  and  _394
REMARK  164  A    between atoms: _394  and  _395
REMARK  165  A    between atoms: _397  and  _399
REMARK  166  A    between atoms: _399  and  _400
REMARK  167  A    between atoms: _399  and  _402
REMARK  168  A    between atoms: _402  and  _403
REMARK  169  A    between atoms: _408  and  _409
REMARK  170  A    between atoms: _411  and  _413
REMARK  171  A    between atoms: _413  and  _414
REMARK  172  A    between atoms: _413  and  _416
REMARK  173  A    between atoms: _416  and  _417
REMARK  174  A    between atoms: _420  and  _422
REMARK  175  A    between atoms: _422  and  _423
REMARK  176  A    between atoms: _422  and  _425
REMARK  177  A    between atoms: _425  and  _426
REMARK  178  A    between atoms: _428  and  _430
REMARK  179  A    between atoms: _430  and  _431
REMARK  180  A    between atoms: _430  and  _433
REMARK  181  A    between atoms: _433  and  _434
REMARK  182  A    between atoms: _437  and  _439
REMARK  183  A    between atoms: _439  and  _440
REMARK  184  A    between atoms: _439  and  _442
REMARK  185  A    between atoms: _442  and  _443
REMARK  186  A    between atoms: _448  and  _449
REMARK  187  A    between atoms: _451  and  _453
REMARK  188  A    between atoms: _453  and  _454
REMARK  189  A    between atoms: _453  and  _456
REMARK  190  A    between atoms: _456  and  _457
REMARK  191  A    between atoms: _459  and  _461
REMARK  192  A    between atoms: _461  and  _462
REMARK  193  A    between atoms: _461  and  _464
REMARK  194  A    between atoms: _464  and  _465
REMARK  195  A    between atoms: _471  and  _473
REMARK  196  A    between atoms: _473  and  _474
REMARK  197  A    between atoms: _473  and  _476
REMARK  198  A    between atoms: _476  and  _477
REMARK  199  A    between atoms: _477  and  _478
REMARK  200  A    between atoms: _478  and  _479
REMARK  201  A    between atoms: _488  and  _490
REMARK  202  A    between atoms: _490  and  _491
REMARK  203  A    between atoms: _490  and  _493
REMARK  204  A    between atoms: _496  and  _498
REMARK  205  A    between atoms: _498  and  _499
REMARK  206  A    between atoms: _501  and  _503
REMARK  207  A    between atoms: _503  and  _504
REMARK  208  A    between atoms: _503  and  _506
REMARK  209  A    between atoms: _506  and  _507
REMARK  210  A    between atoms: _510  and  _512
REMARK  211  A    between atoms: _512  and  _513
REMARK  212  A    between atoms: _512  and  _515
REMARK  213  A    between atoms: _515  and  _516
REMARK  214  A    between atoms: _516  and  _517
REMARK  215  A    between atoms: _519  and  _521
REMARK  216  A    between atoms: _521  and  _522
REMARK  217  A    between atoms: _521  and  _524
REMARK  218  A    between atoms: _524  and  _525
REMARK  219  A    between atoms: _531  and  _533
REMARK  220  A    between atoms: _533  and  _534
REMARK  221  A    between atoms: _533  and  _536
REMARK  222  A    between atoms: _536  and  _537
REMARK  223  A    between atoms: _542  and  _544
REMARK  224  A    between atoms: _544  and  _545
REMARK  225  A    between atoms: _544  and  _547
REMARK  226  A    between atoms: _547  and  _548
REMARK  227  A    between atoms: _558  and  _560
REMARK  228  A    between atoms: _560  and  _561
REMARK  229  A    between atoms: _560  and  _563
REMARK  230  A    between atoms: _566  and  _568
REMARK  231  A    between atoms: _568  and  _569
REMARK  232  A    between atoms: _568  and  _571
REMARK  233  A    between atoms: _571  and  _572
REMARK  234  A    between atoms: _575  and  _577
REMARK  235  A    between atoms: _577  and  _578
REMARK  236  A    between atoms: _577  and  _580
REMARK  237  A    between atoms: _580  and  _581
REMARK  238  A    between atoms: _581  and  _582
REMARK  239  A    between atoms: _584  and  _586
REMARK  240  A    between atoms: _586  and  _587
REMARK  241  A    between atoms: _586  and  _589
REMARK  242  A    between atoms: _589  and  _590
REMARK  243  A    between atoms: _593  and  _595
REMARK  244  A    between atoms: _595  and  _596
REMARK  245  A    between atoms: _595  and  _598
REMARK  246  A    between atoms: _598  and  _599
REMARK  247  A    between atoms: _602  and  _604
REMARK  248  A    between atoms: _604  and  _605
REMARK  249  A    between atoms: _607  and  _609
REMARK  250  A    between atoms: _609  and  _610
REMARK  251  A    between atoms: _609  and  _612
REMARK  252  A    between atoms: _612  and  _613
REMARK  253  A    between atoms: _615  and  _617
REMARK  254  A    between atoms: _617  and  _618
REMARK  255  A    between atoms: _617  and  _620
REMARK  256  A    between atoms: _620  and  _621
REMARK  257  A    between atoms: _631  and  _633
REMARK  258  A    between atoms: _633  and  _634
REMARK  259  A    between atoms: _633  and  _636
REMARK  260  A    between atoms: _636  and  _637
REMARK  261  A    between atoms: _639  and  _641
REMARK  262  A    between atoms: _641  and  _642
REMARK  263  A    between atoms: _641  and  _644
REMARK  264  A    between atoms: _644  and  _645
REMARK  265  A    between atoms: _648  and  _650
REMARK  266  A    between atoms: _650  and  _651
REMARK  267  A    between atoms: _654  and  _656
REMARK  268  A    between atoms: _656  and  _657
REMARK  269  A    between atoms: _656  and  _659
REMARK  270  A    between atoms: _659  and  _660
REMARK  271  A    between atoms: _662  and  _664
REMARK  272  A    between atoms: _664  and  _665
REMARK  273  A    between atoms: _664  and  _667
REMARK  274  A    between atoms: _667  and  _668
REMARK  275  A    between atoms: _668  and  _669
REMARK  276  A    between atoms: _673  and  _674
REMARK  277  A    between atoms: _679  and  _681
REMARK  278  A    between atoms: _681  and  _682
REMARK  279  A    between atoms: _681  and  _684
REMARK  280  A    between atoms: _684  and  _685
REMARK  281  A    between atoms: _687  and  _689
REMARK  282  A    between atoms: _689  and  _690
REMARK  283  A    between atoms: _689  and  _692
REMARK  284  A    between atoms: _692  and  _693
REMARK  285  A    between atoms: _693  and  _694
REMARK  286  A    between atoms: _699  and  _701
REMARK  287  A    between atoms: _701  and  _702
REMARK  288  A    between atoms: _701  and  _704
REMARK  289  A    between atoms: _704  and  _705
REMARK  290  A    between atoms: _705  and  _706
REMARK  291  A    between atoms: _711  and  _713
REMARK  292  A    between atoms: _713  and  _714
REMARK  293  A    between atoms: _713  and  _716
REMARK  294  A    between atoms: _716  and  _717
REMARK  295  A    between atoms: _720  and  _722
REMARK  296  A    between atoms: _722  and  _723
REMARK  297  A    between atoms: _722  and  _725
REMARK  298  A    between atoms: _725  and  _726
REMARK  299  A    between atoms: _729  and  _731
REMARK  300  A    between atoms: _731  and  _732
REMARK  301  A    between atoms: _731  and  _734
REMARK  302  A    between atoms: _734  and  _735
REMARK  303  A    between atoms: _741  and  _743
REMARK  304  A    between atoms: _743  and  _744
REMARK  305  A    between atoms: _743  and  _746
REMARK  306  A    between atoms: _746  and  _747
REMARK  307  A    between atoms: _752  and  _753
REMARK  308  A    between atoms: _755  and  _757
REMARK  309  A    between atoms: _757  and  _758
REMARK  310  A    between atoms: _757  and  _760
REMARK  311  A    between atoms: _760  and  _761
REMARK  312  A    between atoms: _767  and  _769
REMARK  313  A    between atoms: _769  and  _770
REMARK  314  A    between atoms: _769  and  _772
REMARK  315  A    between atoms: _772  and  _773
REMARK  316  A    between atoms: _778  and  _780
REMARK  317  A    between atoms: _780  and  _781
REMARK  318  A    between atoms: _780  and  _783
REMARK  319  A    between atoms: _783  and  _784
REMARK  320  A    between atoms: _784  and  _785
REMARK                            x       y       z     vdW  Elec       q    Type
REMARK                         _______ _______ _______ _____ _____    ______ ____
ROOT
ATOM      1  O   HOH     1      -0.928  44.231  30.600  0.00  0.00    +0.000 OA
ENDROOT
TORSDOF 0
REMARK  Name = ../refined-set-2016/3drf/3drf_pocket.pdb
REMARK  320 active torsions:
REMARK  status: ('A' for Active; 'I' for Inactive)
REMARK    1  A    between atoms: _1  and  _3
REMARK    2  A    between atoms: _3  and  _4
REMARK    3  A    between atoms: _3  and  _6
REMARK    4  A    between atoms: _6  and  _7
REMARK    5  A    between atoms: _12  and  _13
REMARK    6  A    between atoms: _15  and  _17
REMARK    7  A    between atoms: _17  and  _18
REMARK    8  A    between atoms: _17  and  _20
REMARK    9  A    between atoms: _20  and  _21
REMARK   10  A    between atoms: _21  and  _22
REMARK   11  A    between atoms: _27  and  _29
REMARK   12  A    between atoms: _29  and  _30
REMARK   13  A    between atoms: _29  and  _32
REMARK   14  A    between atoms: _32  and  _33
REMARK   15  A    between atoms: _35  and  _37
REMARK   16  A    between atoms: _37  and  _38
REMARK   17  A    between atoms: _37  and  _40
REMARK   18  A    between atoms: _40  and  _41
REMARK   19  A    between atoms: _44  and  _46
REMARK   20  A    between atoms: _46  and  _47
REMARK   21  A    between atoms: _46  and  _49
REMARK   22  A    between atoms: _49  and  _50
REMARK   23  A    between atoms: _52  and  _54
REMARK   24  A    between atoms: _54  and  _55
REMARK   25  A    between atoms: _54  and  _57
REMARK   26  A    between atoms: _57  and  _58
REMARK   27  A    between atoms: _60  and  _62
REMARK   28  A    between atoms: _62  and  _63
REMARK   29  A    between atoms: _65  and  _67
REMARK   30  A    between atoms: _67  and  _68
REMARK   31  A    between atoms: _67  and  _70
REMARK   32  A    between atoms: _70  and  _71
REMARK   33  A    between atoms: _73  and  _75
REMARK   34  A    between atoms: _75  and  _76
REMARK   35  A    between atoms: _75  and  _78
REMARK   36  A    between atoms: _78  and  _79
REMARK   37  A    between atoms: _84  and  _86
REMARK   38  A    between atoms: _86  and  _87
REMARK   39  A    between atoms: _86  and  _89
REMARK   40  A    between atoms: _89  and  _90
REMARK   41  A    between atoms: _93  and  _95
REMARK   42  A    between atoms: _95  and  _96
REMARK   43  A    between atoms: _99  and  _101
REMARK   44  A    between atoms: _101  and  _102
REMARK   45  A    between atoms: _101  and  _104
REMARK   46  A    between atoms: _104  and  _105
REMARK   47  A    between atoms: _108  and  _110
REMARK   48  A    between atoms: _110  and  _111
REMARK   49  A    between atoms: _110  and  _113
REMARK   50  A    between atoms: _113  and  _114
REMARK   51  A    between atoms: _120  and  _122
REMARK   52  A    between atoms: _122  and  _123
REMARK   53  A    between atoms: _126  and  _128
REMARK   54  A    between atoms: _128  and  _129
REMARK   55  A    between atoms: _128  and  _131
REMARK   56  A    between atoms: _131  and  _132
REMARK   57  A    between atoms: _135  and  _137
REMARK   58  A    between atoms: _137  and  _138
REMARK   59  A    between atoms: _140  and  _142
REMARK   60  A    between atoms: _142  and  _143
REMARK   61  A    between atoms: _142  and  _145
REMARK   62  A    between atoms: _145  and  _146
REMARK   63  A    between atoms: _146  and  _147
REMARK   64  A    between atoms: _152  and  _154
REMARK   65  A    between atoms: _154  and  _155
REMARK   66  A    between atoms: _157  and  _159
REMARK   67  A    between atoms: _159  and  _160
REMARK   68  A    between atoms: _159  and  _162
REMARK   69  A    between atoms: _162  and  _163
REMARK   70  A    between atoms: _166  and  _168
REMARK   71  A    between atoms: _168  and  _169
REMARK   72  A    between atoms: _168  and  _171
REMARK   73  A    between atoms: _171  and  _172
REMARK   74  A    between atoms: _178  and  _180
REMARK   75  A    between atoms: _180  and  _181
REMARK   76  A    between atoms: _180  and  _183
REMARK   77  A    between atoms: _183  and  _184
REMARK   78  A    between atoms: _187  and  _189
REMARK   79  A    between atoms: _189  and  _190
REMARK   80  A    between atoms: _189  and  _192
REMARK   81  A    between atoms: _192  and  _193
REMARK   82  A    between atoms: _199  and  _201
REMARK   83  A    between atoms: _201  and  _202
REMARK   84  A    between atoms: _201  and  _204
REMARK   85  A    between atoms: _204  and  _205
REMARK   86  A    between atoms: _211  and  _213
REMARK   87  A    between atoms: _213  and  _214
REMARK   88  A    between atoms: _213  and  _216
REMARK   89  A    between atoms: _216  and  _217
REMARK   90  A    between atoms: _220  and  _222
REMARK   91  A    between atoms: _222  and  _223
REMARK   92  A    between atoms: _222  and  _225
REMARK   93  A    between atoms: _225  and  _226
REMARK   94  A    between atoms: _229  and  _231
REMARK   95  A    between atoms: _231  and  _232
REMARK   96  A    between atoms: _231  and  _234
REMARK   97  A    between atoms: _234  and  _235
REMARK   98  A    between atoms: _235  and  _236
REMARK   99  A    between atoms: _236  and  _237
REMARK  100  A    between atoms: _246  and  _248
REMARK  101  A    between atoms: _248  and  _249
REMARK  102  A    between atoms: _248  and  _251
REMARK  103  A    between atoms: _251  and  _252
REMARK  104  A    between atoms: _255  and  _257
REMARK  105  A    between atoms: _257  and  _258
REMARK  106  A    between atoms: _257  and  _260
REMARK  107  A    between atoms: _260  and  _261
REMARK  108  A    between atoms: _263  and  _265
REMARK  109  A    between atoms: _265  and  _266
REMARK  110  A    between atoms: _265  and  _268
REMARK  111  A    between atoms: _268  and  _269
REMARK  112  A    between atoms: _269  and  _270
REMARK  113  A    between atoms: _275  and  _277
REMARK  114  A    between atoms: _277  and  _278
REMARK  115  A    between atoms: _277  and  _280
REMARK  116  A    between atoms: _280  and  _281
REMARK  117  A    between atoms: _283  and  _285
REMARK  118  A    between atoms: _285  and  _286
REMARK  119  A    between atoms: _288  and  _290
REMARK  120  A    between atoms: _290  and  _291
REMARK  121  A    between atoms: _290  and  _293
REMARK  122  A    between atoms: _293  and  _294
REMARK  123  A    between atoms: _299  and  _301
REMARK  124  A    between atoms: _301  and  _302
REMARK  125  A    between atoms: _304  and  _306
REMARK  126  A    between atoms: _306  and  _307
REMARK  127  A    between atoms: _306  and  _309
REMARK  128  A    between atoms: _309  and  _310
REMARK  129  A    between atoms: _315  and  _316
REMARK  130  A    between atoms: _318  and  _320
REMARK  131  A    between atoms: _320  and  _321
REMARK  132  A    between atoms: _320  and  _323
REMARK  133  A    between atoms: _323  and  _324
REMARK  134  A    between atoms: _330  and  _332
REMARK  135  A    between atoms: _332  and  _333
REMARK  136  A    between atoms: _332  and  _335
REMARK  137  A    between atoms: _335  and  _336
REMARK  138  A    between atoms: _339  and  _341
REMARK  139  A    between atoms: _341  and  _342
REMARK  140  A    between atoms: _341  and  _344
REMARK  141  A    between atoms: _344  and  _345
REMARK  142  A    between atoms: _345  and  _346
REMARK  143  A    between atoms: _349  and  _351
REMARK  144  A    between atoms: _351  and  _352
REMARK  145  A    between atoms: _351  and  _354
REMARK  146  A    between atoms: _354  and  _355
REMARK  147  A    between atoms: _358  and  _360
REMARK  148  A    between atoms: _360  and  _361
REMARK  149  A    between atoms: _360  and  _363
REMARK  150  A    between atoms: _363  and  _364
REMARK  151  A    between atoms: _367  and  _369
REMARK  152  A    between atoms: _369  and  _370
REMARK  153  A    between atoms: _372  and  _374
REMARK  154  A    between atoms: _374  and  _375
REMARK  155  A    between atoms: _374  and  _377
REMARK  156  A    between atoms: _380  and  _382
REMARK  157  A    between atoms: _382  and  _383
REMARK  158  A    between atoms: _382  and  _385
REMARK  159  A    between atoms: _385  and  _386
REMARK  160  A    between atoms: _388  and  _390
REMARK  161  A    between atoms: _390  and  _391
REMARK  162  A    between atoms: _390  and  _393
REMARK  163  A    between atoms: _393  and  _394
REMARK  164  A    between atoms: _394  and  _395
REMARK  165  A    between atoms: _397  and  _399
REMARK  166  A    between atoms: _399  and  _400
REMARK  167  A    between atoms: _399  and  _402
REMARK  168  A    between atoms: _402  and  _403
REMARK  169  A    between atoms: _408  and  _409
REMARK  170  A    between atoms: _411  and  _413
REMARK  171  A    between atoms: _413  and  _414
REMARK  172  A    between atoms: _413  and  _416
REMARK  173  A    between atoms: _416  and  _417
REMARK  174  A    between atoms: _420  and  _422
REMARK  175  A    between atoms: _422  and  _423
REMARK  176  A    between atoms: _422  and  _425
REMARK  177  A    between atoms: _425  and  _426
REMARK  178  A    between atoms: _428  and  _430
REMARK  179  A    between atoms: _430  and  _431
REMARK  180  A    between atoms: _430  and  _433
REMARK  181  A    between atoms: _433  and  _434
REMARK  182  A    between atoms: _437  and  _439
REMARK  183  A    between atoms: _439  and  _440
REMARK  184  A    between atoms: _439  and  _442
REMARK  185  A    between atoms: _442  and  _443
REMARK  186  A    between atoms: _448  and  _449
REMARK  187  A    between atoms: _451  and  _453
REMARK  188  A    between atoms: _453  and  _454
REMARK  189  A    between atoms: _453  and  _456
REMARK  190  A    between atoms: _456  and  _457
REMARK  191  A    between atoms: _459  and  _461
REMARK  192  A    between atoms: _461  and  _462
REMARK  193  A    between atoms: _461  and  _464
REMARK  194  A    between atoms: _464  and  _465
REMARK  195  A    between atoms: _471  and  _473
REMARK  196  A    between atoms: _473  and  _474
REMARK  197  A    between atoms: _473  and  _476
REMARK  198  A    between atoms: _476  and  _477
REMARK  199  A    between atoms: _477  and  _478
REMARK  200  A    between atoms: _478  and  _479
REMARK  201  A    between atoms: _488  and  _490
REMARK  202  A    between atoms: _490  and  _491
REMARK  203  A    between atoms: _490  and  _493
REMARK  204  A    between atoms: _496  and  _498
REMARK  205  A    between atoms: _498  and  _499
REMARK  206  A    between atoms: _501  and  _503
REMARK  207  A    between atoms: _503  and  _504
REMARK  208  A    between atoms: _503  and  _506
REMARK  209  A    between atoms: _506  and  _507
REMARK  210  A    between atoms: _510  and  _512
REMARK  211  A    between atoms: _512  and  _513
REMARK  212  A    between atoms: _512  and  _515
REMARK  213  A    between atoms: _515  and  _516
REMARK  214  A    between atoms: _516  and  _517
REMARK  215  A    between atoms: _519  and  _521
REMARK  216  A    between atoms: _521  and  _522
REMARK  217  A    between atoms: _521  and  _524
REMARK  218  A    between atoms: _524  and  _525
REMARK  219  A    between atoms: _531  and  _533
REMARK  220  A    between atoms: _533  and  _534
REMARK  221  A    between atoms: _533  and  _536
REMARK  222  A    between atoms: _536  and  _537
REMARK  223  A    between atoms: _542  and  _544
REMARK  224  A    between atoms: _544  and  _545
REMARK  225  A    between atoms: _544  and  _547
REMARK  226  A    between atoms: _547  and  _548
REMARK  227  A    between atoms: _558  and  _560
REMARK  228  A    between atoms: _560  and  _561
REMARK  229  A    between atoms: _560  and  _563
REMARK  230  A    between atoms: _566  and  _568
REMARK  231  A    between atoms: _568  and  _569
REMARK  232  A    between atoms: _568  and  _571
REMARK  233  A    between atoms: _571  and  _572
REMARK  234  A    between atoms: _575  and  _577
REMARK  235  A    between atoms: _577  and  _578
REMARK  236  A    between atoms: _577  and  _580
REMARK  237  A    between atoms: _580  and  _581
REMARK  238  A    between atoms: _581  and  _582
REMARK  239  A    between atoms: _584  and  _586
REMARK  240  A    between atoms: _586  and  _587
REMARK  241  A    between atoms: _586  and  _589
REMARK  242  A    between atoms: _589  and  _590
REMARK  243  A    between atoms: _593  and  _595
REMARK  244  A    between atoms: _595  and  _596
REMARK  245  A    between atoms: _595  and  _598
REMARK  246  A    between atoms: _598  and  _599
REMARK  247  A    between atoms: _602  and  _604
REMARK  248  A    between atoms: _604  and  _605
REMARK  249  A    between atoms: _607  and  _609
REMARK  250  A    between atoms: _609  and  _610
REMARK  251  A    between atoms: _609  and  _612
REMARK  252  A    between atoms: _612  and  _613
REMARK  253  A    between atoms: _615  and  _617
REMARK  254  A    between atoms: _617  and  _618
REMARK  255  A    between atoms: _617  and  _620
REMARK  256  A    between atoms: _620  and  _621
REMARK  257  A    between atoms: _631  and  _633
REMARK  258  A    between atoms: _633  and  _634
REMARK  259  A    between atoms: _633  and  _636
REMARK  260  A    between atoms: _636  and  _637
REMARK  261  A    between atoms: _639  and  _641
REMARK  262  A    between atoms: _641  and  _642
REMARK  263  A    between atoms: _641  and  _644
REMARK  264  A    between atoms: _644  and  _645
REMARK  265  A    between atoms: _648  and  _650
REMARK  266  A    between atoms: _650  and  _651
REMARK  267  A    between atoms: _654  and  _656
REMARK  268  A    between atoms: _656  and  _657
REMARK  269  A    between atoms: _656  and  _659
REMARK  270  A    between atoms: _659  and  _660
REMARK  271  A    between atoms: _662  and  _664
REMARK  272  A    between atoms: _664  and  _665
REMARK  273  A    between atoms: _664  and  _667
REMARK  274  A    between atoms: _667  and  _668
REMARK  275  A    between atoms: _668  and  _669
REMARK  276  A    between atoms: _673  and  _674
REMARK  277  A    between atoms: _679  and  _681
REMARK  278  A    between atoms: _681  and  _682
REMARK  279  A    between atoms: _681  and  _684
REMARK  280  A    between atoms: _684  and  _685
REMARK  281  A    between atoms: _687  and  _689
REMARK  282  A    between atoms: _689  and  _690
REMARK  283  A    between atoms: _689  and  _692
REMARK  284  A    between atoms: _692  and  _693
REMARK  285  A    between atoms: _693  and  _694
REMARK  286  A    between atoms: _699  and  _701
REMARK  287  A    between atoms: _701  and  _702
REMARK  288  A    between atoms: _701  and  _704
REMARK  289  A    between atoms: _704  and  _705
REMARK  290  A    between atoms: _705  and  _706
REMARK  291  A    between atoms: _711  and  _713
REMARK  292  A    between atoms: _713  and  _714
REMARK  293  A    between atoms: _713  and  _716
REMARK  294  A    between atoms: _716  and  _717
REMARK  295  A    between atoms: _720  and  _722
REMARK  296  A    between atoms: _722  and  _723
REMARK  297  A    between atoms: _722  and  _725
REMARK  298  A    between atoms: _725  and  _726
REMARK  299  A    between atoms: _729  and  _731
REMARK  300  A    between atoms: _731  and  _732
REMARK  301  A    between atoms: _731  and  _734
REMARK  302  A    between atoms: _734  and  _735
REMARK  303  A    between atoms: _741  and  _743
REMARK  304  A    between atoms: _743  and  _744
REMARK  305  A    between atoms: _743  and  _746
REMARK  306  A    between atoms: _746  and  _747
REMARK  307  A    between atoms: _752  and  _753
REMARK  308  A    between atoms: _755  and  _757
REMARK  309  A    between atoms: _757  and  _758
REMARK  310  A    between atoms: _757  and  _760
REMARK  311  A    between atoms: _760  and  _761
REMARK  312  A    between atoms: _767  and  _769
REMARK  313  A    between atoms: _769  and  _770
REMARK  314  A    between atoms: _769  and  _772
REMARK  315  A    between atoms: _772  and  _773
REMARK  316  A    between atoms: _778  and  _780
REMARK  317  A    between atoms: _780  and  _781
REMARK  318  A    between atoms: _780  and  _783
REMARK  319  A    between atoms: _783  and  _784
REMARK  320  A    between atoms: _784  and  _785
REMARK                            x       y       z     vdW  Elec       q    Type
REMARK                         _______ _______ _______ _____ _____    ______ ____
ROOT
ATOM      1  O   HOH     1      -6.194  48.496  30.391  0.00  0.00    +0.000 OA
ENDROOT
TORSDOF 0
REMARK  Name = ../refined-set-2016/3drf/3drf_pocket.pdb
REMARK  320 active torsions:
REMARK  status: ('A' for Active; 'I' for Inactive)
REMARK    1  A    between atoms: _1  and  _3
REMARK    2  A    between atoms: _3  and  _4
REMARK    3  A    between atoms: _3  and  _6
REMARK    4  A    between atoms: _6  and  _7
REMARK    5  A    between atoms: _12  and  _13
REMARK    6  A    between atoms: _15  and  _17
REMARK    7  A    between atoms: _17  and  _18
REMARK    8  A    between atoms: _17  and  _20
REMARK    9  A    between atoms: _20  and  _21
REMARK   10  A    between atoms: _21  and  _22
REMARK   11  A    between atoms: _27  and  _29
REMARK   12  A    between atoms: _29  and  _30
REMARK   13  A    between atoms: _29  and  _32
REMARK   14  A    between atoms: _32  and  _33
REMARK   15  A    between atoms: _35  and  _37
REMARK   16  A    between atoms: _37  and  _38
REMARK   17  A    between atoms: _37  and  _40
REMARK   18  A    between atoms: _40  and  _41
REMARK   19  A    between atoms: _44  and  _46
REMARK   20  A    between atoms: _46  and  _47
REMARK   21  A    between atoms: _46  and  _49
REMARK   22  A    between atoms: _49  and  _50
REMARK   23  A    between atoms: _52  and  _54
REMARK   24  A    between atoms: _54  and  _55
REMARK   25  A    between atoms: _54  and  _57
REMARK   26  A    between atoms: _57  and  _58
REMARK   27  A    between atoms: _60  and  _62
REMARK   28  A    between atoms: _62  and  _63
REMARK   29  A    between atoms: _65  and  _67
REMARK   30  A    between atoms: _67  and  _68
REMARK   31  A    between atoms: _67  and  _70
REMARK   32  A    between atoms: _70  and  _71
REMARK   33  A    between atoms: _73  and  _75
REMARK   34  A    between atoms: _75  and  _76
REMARK   35  A    between atoms: _75  and  _78
REMARK   36  A    between atoms: _78  and  _79
REMARK   37  A    between atoms: _84  and  _86
REMARK   38  A    between atoms: _86  and  _87
REMARK   39  A    between atoms: _86  and  _89
REMARK   40  A    between atoms: _89  and  _90
REMARK   41  A    between atoms: _93  and  _95
REMARK   42  A    between atoms: _95  and  _96
REMARK   43  A    between atoms: _99  and  _101
REMARK   44  A    between atoms: _101  and  _102
REMARK   45  A    between atoms: _101  and  _104
REMARK   46  A    between atoms: _104  and  _105
REMARK   47  A    between atoms: _108  and  _110
REMARK   48  A    between atoms: _110  and  _111
REMARK   49  A    between atoms: _110  and  _113
REMARK   50  A    between atoms: _113  and  _114
REMARK   51  A    between atoms: _120  and  _122
REMARK   52  A    between atoms: _122  and  _123
REMARK   53  A    between atoms: _126  and  _128
REMARK   54  A    between atoms: _128  and  _129
REMARK   55  A    between atoms: _128  and  _131
REMARK   56  A    between atoms: _131  and  _132
REMARK   57  A    between atoms: _135  and  _137
REMARK   58  A    between atoms: _137  and  _138
REMARK   59  A    between atoms: _140  and  _142
REMARK   60  A    between atoms: _142  and  _143
REMARK   61  A    between atoms: _142  and  _145
REMARK   62  A    between atoms: _145  and  _146
REMARK   63  A    between atoms: _146  and  _147
REMARK   64  A    between atoms: _152  and  _154
REMARK   65  A    between atoms: _154  and  _155
REMARK   66  A    between atoms: _157  and  _159
REMARK   67  A    between atoms: _159  and  _160
REMARK   68  A    between atoms: _159  and  _162
REMARK   69  A    between atoms: _162  and  _163
REMARK   70  A    between atoms: _166  and  _168
REMARK   71  A    between atoms: _168  and  _169
REMARK   72  A    between atoms: _168  and  _171
REMARK   73  A    between atoms: _171  and  _172
REMARK   74  A    between atoms: _178  and  _180
REMARK   75  A    between atoms: _180  and  _181
REMARK   76  A    between atoms: _180  and  _183
REMARK   77  A    between atoms: _183  and  _184
REMARK   78  A    between atoms: _187  and  _189
REMARK   79  A    between atoms: _189  and  _190
REMARK   80  A    between atoms: _189  and  _192
REMARK   81  A    between atoms: _192  and  _193
REMARK   82  A    between atoms: _199  and  _201
REMARK   83  A    between atoms: _201  and  _202
REMARK   84  A    between atoms: _201  and  _204
REMARK   85  A    between atoms: _204  and  _205
REMARK   86  A    between atoms: _211  and  _213
REMARK   87  A    between atoms: _213  and  _214
REMARK   88  A    between atoms: _213  and  _216
REMARK   89  A    between atoms: _216  and  _217
REMARK   90  A    between atoms: _220  and  _222
REMARK   91  A    between atoms: _222  and  _223
REMARK   92  A    between atoms: _222  and  _225
REMARK   93  A    between atoms: _225  and  _226
REMARK   94  A    between atoms: _229  and  _231
REMARK   95  A    between atoms: _231  and  _232
REMARK   96  A    between atoms: _231  and  _234
REMARK   97  A    between atoms: _234  and  _235
REMARK   98  A    between atoms: _235  and  _236
REMARK   99  A    between atoms: _236  and  _237
REMARK  100  A    between atoms: _246  and  _248
REMARK  101  A    between atoms: _248  and  _249
REMARK  102  A    between atoms: _248  and  _251
REMARK  103  A    between atoms: _251  and  _252
REMARK  104  A    between atoms: _255  and  _257
REMARK  105  A    between atoms: _257  and  _258
REMARK  106  A    between atoms: _257  and  _260
REMARK  107  A    between atoms: _260  and  _261
REMARK  108  A    between atoms: _263  and  _265
REMARK  109  A    between atoms: _265  and  _266
REMARK  110  A    between atoms: _265  and  _268
REMARK  111  A    between atoms: _268  and  _269
REMARK  112  A    between atoms: _269  and  _270
REMARK  113  A    between atoms: _275  and  _277
REMARK  114  A    between atoms: _277  and  _278
REMARK  115  A    between atoms: _277  and  _280
REMARK  116  A    between atoms: _280  and  _281
REMARK  117  A    between atoms: _283  and  _285
REMARK  118  A    between atoms: _285  and  _286
REMARK  119  A    between atoms: _288  and  _290
REMARK  120  A    between atoms: _290  and  _291
REMARK  121  A    between atoms: _290  and  _293
REMARK  122  A    between atoms: _293  and  _294
REMARK  123  A    between atoms: _299  and  _301
REMARK  124  A    between atoms: _301  and  _302
REMARK  125  A    between atoms: _304  and  _306
REMARK  126  A    between atoms: _306  and  _307
REMARK  127  A    between atoms: _306  and  _309
REMARK  128  A    between atoms: _309  and  _310
REMARK  129  A    between atoms: _315  and  _316
REMARK  130  A    between atoms: _318  and  _320
REMARK  131  A    between atoms: _320  and  _321
REMARK  132  A    between atoms: _320  and  _323
REMARK  133  A    between atoms: _323  and  _324
REMARK  134  A    between atoms: _330  and  _332
REMARK  135  A    between atoms: _332  and  _333
REMARK  136  A    between atoms: _332  and  _335
REMARK  137  A    between atoms: _335  and  _336
REMARK  138  A    between atoms: _339  and  _341
REMARK  139  A    between atoms: _341  and  _342
REMARK  140  A    between atoms: _341  and  _344
REMARK  141  A    between atoms: _344  and  _345
REMARK  142  A    between atoms: _345  and  _346
REMARK  143  A    between atoms: _349  and  _351
REMARK  144  A    between atoms: _351  and  _352
REMARK  145  A    between atoms: _351  and  _354
REMARK  146  A    between atoms: _354  and  _355
REMARK  147  A    between atoms: _358  and  _360
REMARK  148  A    between atoms: _360  and  _361
REMARK  149  A    between atoms: _360  and  _363
REMARK  150  A    between atoms: _363  and  _364
REMARK  151  A    between atoms: _367  and  _369
REMARK  152  A    between atoms: _369  and  _370
REMARK  153  A    between atoms: _372  and  _374
REMARK  154  A    between atoms: _374  and  _375
REMARK  155  A    between atoms: _374  and  _377
REMARK  156  A    between atoms: _380  and  _382
REMARK  157  A    between atoms: _382  and  _383
REMARK  158  A    between atoms: _382  and  _385
REMARK  159  A    between atoms: _385  and  _386
REMARK  160  A    between atoms: _388  and  _390
REMARK  161  A    between atoms: _390  and  _391
REMARK  162  A    between atoms: _390  and  _393
REMARK  163  A    between atoms: _393  and  _394
REMARK  164  A    between atoms: _394  and  _395
REMARK  165  A    between atoms: _397  and  _399
REMARK  166  A    between atoms: _399  and  _400
REMARK  167  A    between atoms: _399  and  _402
REMARK  168  A    between atoms: _402  and  _403
REMARK  169  A    between atoms: _408  and  _409
REMARK  170  A    between atoms: _411  and  _413
REMARK  171  A    between atoms: _413  and  _414
REMARK  172  A    between atoms: _413  and  _416
REMARK  173  A    between atoms: _416  and  _417
REMARK  174  A    between atoms: _420  and  _422
REMARK  175  A    between atoms: _422  and  _423
REMARK  176  A    between atoms: _422  and  _425
REMARK  177  A    between atoms: _425  and  _426
REMARK  178  A    between atoms: _428  and  _430
REMARK  179  A    between atoms: _430  and  _431
REMARK  180  A    between atoms: _430  and  _433
REMARK  181  A    between atoms: _433  and  _434
REMARK  182  A    between atoms: _437  and  _439
REMARK  183  A    between atoms: _439  and  _440
REMARK  184  A    between atoms: _439  and  _442
REMARK  185  A    between atoms: _442  and  _443
REMARK  186  A    between atoms: _448  and  _449
REMARK  187  A    between atoms: _451  and  _453
REMARK  188  A    between atoms: _453  and  _454
REMARK  189  A    between atoms: _453  and  _456
REMARK  190  A    between atoms: _456  and  _457
REMARK  191  A    between atoms: _459  and  _461
REMARK  192  A    between atoms: _461  and  _462
REMARK  193  A    between atoms: _461  and  _464
REMARK  194  A    between atoms: _464  and  _465
REMARK  195  A    between atoms: _471  and  _473
REMARK  196  A    between atoms: _473  and  _474
REMARK  197  A    between atoms: _473  and  _476
REMARK  198  A    between atoms: _476  and  _477
REMARK  199  A    between atoms: _477  and  _478
REMARK  200  A    between atoms: _478  and  _479
REMARK  201  A    between atoms: _488  and  _490
REMARK  202  A    between atoms: _490  and  _491
REMARK  203  A    between atoms: _490  and  _493
REMARK  204  A    between atoms: _496  and  _498
REMARK  205  A    between atoms: _498  and  _499
REMARK  206  A    between atoms: _501  and  _503
REMARK  207  A    between atoms: _503  and  _504
REMARK  208  A    between atoms: _503  and  _506
REMARK  209  A    between atoms: _506  and  _507
REMARK  210  A    between atoms: _510  and  _512
REMARK  211  A    between atoms: _512  and  _513
REMARK  212  A    between atoms: _512  and  _515
REMARK  213  A    between atoms: _515  and  _516
REMARK  214  A    between atoms: _516  and  _517
REMARK  215  A    between atoms: _519  and  _521
REMARK  216  A    between atoms: _521  and  _522
REMARK  217  A    between atoms: _521  and  _524
REMARK  218  A    between atoms: _524  and  _525
REMARK  219  A    between atoms: _531  and  _533
REMARK  220  A    between atoms: _533  and  _534
REMARK  221  A    between atoms: _533  and  _536
REMARK  222  A    between atoms: _536  and  _537
REMARK  223  A    between atoms: _542  and  _544
REMARK  224  A    between atoms: _544  and  _545
REMARK  225  A    between atoms: _544  and  _547
REMARK  226  A    between atoms: _547  and  _548
REMARK  227  A    between atoms: _558  and  _560
REMARK  228  A    between atoms: _560  and  _561
REMARK  229  A    between atoms: _560  and  _563
REMARK  230  A    between atoms: _566  and  _568
REMARK  231  A    between atoms: _568  and  _569
REMARK  232  A    between atoms: _568  and  _571
REMARK  233  A    between atoms: _571  and  _572
REMARK  234  A    between atoms: _575  and  _577
REMARK  235  A    between atoms: _577  and  _578
REMARK  236  A    between atoms: _577  and  _580
REMARK  237  A    between atoms: _580  and  _581
REMARK  238  A    between atoms: _581  and  _582
REMARK  239  A    between atoms: _584  and  _586
REMARK  240  A    between atoms: _586  and  _587
REMARK  241  A    between atoms: _586  and  _589
REMARK  242  A    between atoms: _589  and  _590
REMARK  243  A    between atoms: _593  and  _595
REMARK  244  A    between atoms: _595  and  _596
REMARK  245  A    between atoms: _595  and  _598
REMARK  246  A    between atoms: _598  and  _599
REMARK  247  A    between atoms: _602  and  _604
REMARK  248  A    between atoms: _604  and  _605
REMARK  249  A    between atoms: _607  and  _609
REMARK  250  A    between atoms: _609  and  _610
REMARK  251  A    between atoms: _609  and  _612
REMARK  252  A    between atoms: _612  and  _613
REMARK  253  A    between atoms: _615  and  _617
REMARK  254  A    between atoms: _617  and  _618
REMARK  255  A    between atoms: _617  and  _620
REMARK  256  A    between atoms: _620  and  _621
REMARK  257  A    between atoms: _631  and  _633
REMARK  258  A    between atoms: _633  and  _634
REMARK  259  A    between atoms: _633  and  _636
REMARK  260  A    between atoms: _636  and  _637
REMARK  261  A    between atoms: _639  and  _641
REMARK  262  A    between atoms: _641  and  _642
REMARK  263  A    between atoms: _641  and  _644
REMARK  264  A    between atoms: _644  and  _645
REMARK  265  A    between atoms: _648  and  _650
REMARK  266  A    between atoms: _650  and  _651
REMARK  267  A    between atoms: _654  and  _656
REMARK  268  A    between atoms: _656  and  _657
REMARK  269  A    between atoms: _656  and  _659
REMARK  270  A    between atoms: _659  and  _660
REMARK  271  A    between atoms: _662  and  _664
REMARK  272  A    between atoms: _664  and  _665
REMARK  273  A    between atoms: _664  and  _667
REMARK  274  A    between atoms: _667  and  _668
REMARK  275  A    between atoms: _668  and  _669
REMARK  276  A    between atoms: _673  and  _674
REMARK  277  A    between atoms: _679  and  _681
REMARK  278  A    between atoms: _681  and  _682
REMARK  279  A    between atoms: _681  and  _684
REMARK  280  A    between atoms: _684  and  _685
REMARK  281  A    between atoms: _687  and  _689
REMARK  282  A    between atoms: _689  and  _690
REMARK  283  A    between atoms: _689  and  _692
REMARK  284  A    between atoms: _692  and  _693
REMARK  285  A    between atoms: _693  and  _694
REMARK  286  A    between atoms: _699  and  _701
REMARK  287  A    between atoms: _701  and  _702
REMARK  288  A    between atoms: _701  and  _704
REMARK  289  A    between atoms: _704  and  _705
REMARK  290  A    between atoms: _705  and  _706
REMARK  291  A    between atoms: _711  and  _713
REMARK  292  A    between atoms: _713  and  _714
REMARK  293  A    between atoms: _713  and  _716
REMARK  294  A    between atoms: _716  and  _717
REMARK  295  A    between atoms: _720  and  _722
REMARK  296  A    between atoms: _722  and  _723
REMARK  297  A    between atoms: _722  and  _725
REMARK  298  A    between atoms: _725  and  _726
REMARK  299  A    between atoms: _729  and  _731
REMARK  300  A    between atoms: _731  and  _732
REMARK  301  A    between atoms: _731  and  _734
REMARK  302  A    between atoms: _734  and  _735
REMARK  303  A    between atoms: _741  and  _743
REMARK  304  A    between atoms: _743  and  _744
REMARK  305  A    between atoms: _743  and  _746
REMARK  306  A    between atoms: _746  and  _747
REMARK  307  A    between atoms: _752  and  _753
REMARK  308  A    between atoms: _755  and  _757
REMARK  309  A    between atoms: _757  and  _758
REMARK  310  A    between atoms: _757  and  _760
REMARK  311  A    between atoms: _760  and  _761
REMARK  312  A    between atoms: _767  and  _769
REMARK  313  A    between atoms: _769  and  _770
REMARK  314  A    between atoms: _769  and  _772
REMARK  315  A    between atoms: _772  and  _773
REMARK  316  A    between atoms: _778  and  _780
REMARK  317  A    between atoms: _780  and  _781
REMARK  318  A    between atoms: _780  and  _783
REMARK  319  A    between atoms: _783  and  _784
REMARK  320  A    between atoms: _784  and  _785
REMARK                            x       y       z     vdW  Elec       q    Type
REMARK                         _______ _______ _______ _____ _____    ______ ____
ROOT
ATOM      1  O   HOH     1      16.129  41.549  14.529  0.00  0.00    +0.000 OA
ENDROOT
TORSDOF 0
REMARK  Name = ../refined-set-2016/3drf/3drf_pocket.pdb
REMARK  320 active torsions:
REMARK  status: ('A' for Active; 'I' for Inactive)
REMARK    1  A    between atoms: _1  and  _3
REMARK    2  A    between atoms: _3  and  _4
REMARK    3  A    between atoms: _3  and  _6
REMARK    4  A    between atoms: _6  and  _7
REMARK    5  A    between atoms: _12  and  _13
REMARK    6  A    between atoms: _15  and  _17
REMARK    7  A    between atoms: _17  and  _18
REMARK    8  A    between atoms: _17  and  _20
REMARK    9  A    between atoms: _20  and  _21
REMARK   10  A    between atoms: _21  and  _22
REMARK   11  A    between atoms: _27  and  _29
REMARK   12  A    between atoms: _29  and  _30
REMARK   13  A    between atoms: _29  and  _32
REMARK   14  A    between atoms: _32  and  _33
REMARK   15  A    between atoms: _35  and  _37
REMARK   16  A    between atoms: _37  and  _38
REMARK   17  A    between atoms: _37  and  _40
REMARK   18  A    between atoms: _40  and  _41
REMARK   19  A    between atoms: _44  and  _46
REMARK   20  A    between atoms: _46  and  _47
REMARK   21  A    between atoms: _46  and  _49
REMARK   22  A    between atoms: _49  and  _50
REMARK   23  A    between atoms: _52  and  _54
REMARK   24  A    between atoms: _54  and  _55
REMARK   25  A    between atoms: _54  and  _57
REMARK   26  A    between atoms: _57  and  _58
REMARK   27  A    between atoms: _60  and  _62
REMARK   28  A    between atoms: _62  and  _63
REMARK   29  A    between atoms: _65  and  _67
REMARK   30  A    between atoms: _67  and  _68
REMARK   31  A    between atoms: _67  and  _70
REMARK   32  A    between atoms: _70  and  _71
REMARK   33  A    between atoms: _73  and  _75
REMARK   34  A    between atoms: _75  and  _76
REMARK   35  A    between atoms: _75  and  _78
REMARK   36  A    between atoms: _78  and  _79
REMARK   37  A    between atoms: _84  and  _86
REMARK   38  A    between atoms: _86  and  _87
REMARK   39  A    between atoms: _86  and  _89
REMARK   40  A    between atoms: _89  and  _90
REMARK   41  A    between atoms: _93  and  _95
REMARK   42  A    between atoms: _95  and  _96
REMARK   43  A    between atoms: _99  and  _101
REMARK   44  A    between atoms: _101  and  _102
REMARK   45  A    between atoms: _101  and  _104
REMARK   46  A    between atoms: _104  and  _105
REMARK   47  A    between atoms: _108  and  _110
REMARK   48  A    between atoms: _110  and  _111
REMARK   49  A    between atoms: _110  and  _113
REMARK   50  A    between atoms: _113  and  _114
REMARK   51  A    between atoms: _120  and  _122
REMARK   52  A    between atoms: _122  and  _123
REMARK   53  A    between atoms: _126  and  _128
REMARK   54  A    between atoms: _128  and  _129
REMARK   55  A    between atoms: _128  and  _131
REMARK   56  A    between atoms: _131  and  _132
REMARK   57  A    between atoms: _135  and  _137
REMARK   58  A    between atoms: _137  and  _138
REMARK   59  A    between atoms: _140  and  _142
REMARK   60  A    between atoms: _142  and  _143
REMARK   61  A    between atoms: _142  and  _145
REMARK   62  A    between atoms: _145  and  _146
REMARK   63  A    between atoms: _146  and  _147
REMARK   64  A    between atoms: _152  and  _154
REMARK   65  A    between atoms: _154  and  _155
REMARK   66  A    between atoms: _157  and  _159
REMARK   67  A    between atoms: _159  and  _160
REMARK   68  A    between atoms: _159  and  _162
REMARK   69  A    between atoms: _162  and  _163
REMARK   70  A    between atoms: _166  and  _168
REMARK   71  A    between atoms: _168  and  _169
REMARK   72  A    between atoms: _168  and  _171
REMARK   73  A    between atoms: _171  and  _172
REMARK   74  A    between atoms: _178  and  _180
REMARK   75  A    between atoms: _180  and  _181
REMARK   76  A    between atoms: _180  and  _183
REMARK   77  A    between atoms: _183  and  _184
REMARK   78  A    between atoms: _187  and  _189
REMARK   79  A    between atoms: _189  and  _190
REMARK   80  A    between atoms: _189  and  _192
REMARK   81  A    between atoms: _192  and  _193
REMARK   82  A    between atoms: _199  and  _201
REMARK   83  A    between atoms: _201  and  _202
REMARK   84  A    between atoms: _201  and  _204
REMARK   85  A    between atoms: _204  and  _205
REMARK   86  A    between atoms: _211  and  _213
REMARK   87  A    between atoms: _213  and  _214
REMARK   88  A    between atoms: _213  and  _216
REMARK   89  A    between atoms: _216  and  _217
REMARK   90  A    between atoms: _220  and  _222
REMARK   91  A    between atoms: _222  and  _223
REMARK   92  A    between atoms: _222  and  _225
REMARK   93  A    between atoms: _225  and  _226
REMARK   94  A    between atoms: _229  and  _231
REMARK   95  A    between atoms: _231  and  _232
REMARK   96  A    between atoms: _231  and  _234
REMARK   97  A    between atoms: _234  and  _235
REMARK   98  A    between atoms: _235  and  _236
REMARK   99  A    between atoms: _236  and  _237
REMARK  100  A    between atoms: _246  and  _248
REMARK  101  A    between atoms: _248  and  _249
REMARK  102  A    between atoms: _248  and  _251
REMARK  103  A    between atoms: _251  and  _252
REMARK  104  A    between atoms: _255  and  _257
REMARK  105  A    between atoms: _257  and  _258
REMARK  106  A    between atoms: _257  and  _260
REMARK  107  A    between atoms: _260  and  _261
REMARK  108  A    between atoms: _263  and  _265
REMARK  109  A    between atoms: _265  and  _266
REMARK  110  A    between atoms: _265  and  _268
REMARK  111  A    between atoms: _268  and  _269
REMARK  112  A    between atoms: _269  and  _270
REMARK  113  A    between atoms: _275  and  _277
REMARK  114  A    between atoms: _277  and  _278
REMARK  115  A    between atoms: _277  and  _280
REMARK  116  A    between atoms: _280  and  _281
REMARK  117  A    between atoms: _283  and  _285
REMARK  118  A    between atoms: _285  and  _286
REMARK  119  A    between atoms: _288  and  _290
REMARK  120  A    between atoms: _290  and  _291
REMARK  121  A    between atoms: _290  and  _293
REMARK  122  A    between atoms: _293  and  _294
REMARK  123  A    between atoms: _299  and  _301
REMARK  124  A    between atoms: _301  and  _302
REMARK  125  A    between atoms: _304  and  _306
REMARK  126  A    between atoms: _306  and  _307
REMARK  127  A    between atoms: _306  and  _309
REMARK  128  A    between atoms: _309  and  _310
REMARK  129  A    between atoms: _315  and  _316
REMARK  130  A    between atoms: _318  and  _320
REMARK  131  A    between atoms: _320  and  _321
REMARK  132  A    between atoms: _320  and  _323
REMARK  133  A    between atoms: _323  and  _324
REMARK  134  A    between atoms: _330  and  _332
REMARK  135  A    between atoms: _332  and  _333
REMARK  136  A    between atoms: _332  and  _335
REMARK  137  A    between atoms: _335  and  _336
REMARK  138  A    between atoms: _339  and  _341
REMARK  139  A    between atoms: _341  and  _342
REMARK  140  A    between atoms: _341  and  _344
REMARK  141  A    between atoms: _344  and  _345
REMARK  142  A    between atoms: _345  and  _346
REMARK  143  A    between atoms: _349  and  _351
REMARK  144  A    between atoms: _351  and  _352
REMARK  145  A    between atoms: _351  and  _354
REMARK  146  A    between atoms: _354  and  _355
REMARK  147  A    between atoms: _358  and  _360
REMARK  148  A    between atoms: _360  and  _361
REMARK  149  A    between atoms: _360  and  _363
REMARK  150  A    between atoms: _363  and  _364
REMARK  151  A    between atoms: _367  and  _369
REMARK  152  A    between atoms: _369  and  _370
REMARK  153  A    between atoms: _372  and  _374
REMARK  154  A    between atoms: _374  and  _375
REMARK  155  A    between atoms: _374  and  _377
REMARK  156  A    between atoms: _380  and  _382
REMARK  157  A    between atoms: _382  and  _383
REMARK  158  A    between atoms: _382  and  _385
REMARK  159  A    between atoms: _385  and  _386
REMARK  160  A    between atoms: _388  and  _390
REMARK  161  A    between atoms: _390  and  _391
REMARK  162  A    between atoms: _390  and  _393
REMARK  163  A    between atoms: _393  and  _394
REMARK  164  A    between atoms: _394  and  _395
REMARK  165  A    between atoms: _397  and  _399
REMARK  166  A    between atoms: _399  and  _400
REMARK  167  A    between atoms: _399  and  _402
REMARK  168  A    between atoms: _402  and  _403
REMARK  169  A    between atoms: _408  and  _409
REMARK  170  A    between atoms: _411  and  _413
REMARK  171  A    between atoms: _413  and  _414
REMARK  172  A    between atoms: _413  and  _416
REMARK  173  A    between atoms: _416  and  _417
REMARK  174  A    between atoms: _420  and  _422
REMARK  175  A    between atoms: _422  and  _423
REMARK  176  A    between atoms: _422  and  _425
REMARK  177  A    between atoms: _425  and  _426
REMARK  178  A    between atoms: _428  and  _430
REMARK  179  A    between atoms: _430  and  _431
REMARK  180  A    between atoms: _430  and  _433
REMARK  181  A    between atoms: _433  and  _434
REMARK  182  A    between atoms: _437  and  _439
REMARK  183  A    between atoms: _439  and  _440
REMARK  184  A    between atoms: _439  and  _442
REMARK  185  A    between atoms: _442  and  _443
REMARK  186  A    between atoms: _448  and  _449
REMARK  187  A    between atoms: _451  and  _453
REMARK  188  A    between atoms: _453  and  _454
REMARK  189  A    between atoms: _453  and  _456
REMARK  190  A    between atoms: _456  and  _457
REMARK  191  A    between atoms: _459  and  _461
REMARK  192  A    between atoms: _461  and  _462
REMARK  193  A    between atoms: _461  and  _464
REMARK  194  A    between atoms: _464  and  _465
REMARK  195  A    between atoms: _471  and  _473
REMARK  196  A    between atoms: _473  and  _474
REMARK  197  A    between atoms: _473  and  _476
REMARK  198  A    between atoms: _476  and  _477
REMARK  199  A    between atoms: _477  and  _478
REMARK  200  A    between atoms: _478  and  _479
REMARK  201  A    between atoms: _488  and  _490
REMARK  202  A    between atoms: _490  and  _491
REMARK  203  A    between atoms: _490  and  _493
REMARK  204  A    between atoms: _496  and  _498
REMARK  205  A    between atoms: _498  and  _499
REMARK  206  A    between atoms: _501  and  _503
REMARK  207  A    between atoms: _503  and  _504
REMARK  208  A    between atoms: _503  and  _506
REMARK  209  A    between atoms: _506  and  _507
REMARK  210  A    between atoms: _510  and  _512
REMARK  211  A    between atoms: _512  and  _513
REMARK  212  A    between atoms: _512  and  _515
REMARK  213  A    between atoms: _515  and  _516
REMARK  214  A    between atoms: _516  and  _517
REMARK  215  A    between atoms: _519  and  _521
REMARK  216  A    between atoms: _521  and  _522
REMARK  217  A    between atoms: _521  and  _524
REMARK  218  A    between atoms: _524  and  _525
REMARK  219  A    between atoms: _531  and  _533
REMARK  220  A    between atoms: _533  and  _534
REMARK  221  A    between atoms: _533  and  _536
REMARK  222  A    between atoms: _536  and  _537
REMARK  223  A    between atoms: _542  and  _544
REMARK  224  A    between atoms: _544  and  _545
REMARK  225  A    between atoms: _544  and  _547
REMARK  226  A    between atoms: _547  and  _548
REMARK  227  A    between atoms: _558  and  _560
REMARK  228  A    between atoms: _560  and  _561
REMARK  229  A    between atoms: _560  and  _563
REMARK  230  A    between atoms: _566  and  _568
REMARK  231  A    between atoms: _568  and  _569
REMARK  232  A    between atoms: _568  and  _571
REMARK  233  A    between atoms: _571  and  _572
REMARK  234  A    between atoms: _575  and  _577
REMARK  235  A    between atoms: _577  and  _578
REMARK  236  A    between atoms: _577  and  _580
REMARK  237  A    between atoms: _580  and  _581
REMARK  238  A    between atoms: _581  and  _582
REMARK  239  A    between atoms: _584  and  _586
REMARK  240  A    between atoms: _586  and  _587
REMARK  241  A    between atoms: _586  and  _589
REMARK  242  A    between atoms: _589  and  _590
REMARK  243  A    between atoms: _593  and  _595
REMARK  244  A    between atoms: _595  and  _596
REMARK  245  A    between atoms: _595  and  _598
REMARK  246  A    between atoms: _598  and  _599
REMARK  247  A    between atoms: _602  and  _604
REMARK  248  A    between atoms: _604  and  _605
REMARK  249  A    between atoms: _607  and  _609
REMARK  250  A    between atoms: _609  and  _610
REMARK  251  A    between atoms: _609  and  _612
REMARK  252  A    between atoms: _612  and  _613
REMARK  253  A    between atoms: _615  and  _617
REMARK  254  A    between atoms: _617  and  _618
REMARK  255  A    between atoms: _617  and  _620
REMARK  256  A    between atoms: _620  and  _621
REMARK  257  A    between atoms: _631  and  _633
REMARK  258  A    between atoms: _633  and  _634
REMARK  259  A    between atoms: _633  and  _636
REMARK  260  A    between atoms: _636  and  _637
REMARK  261  A    between atoms: _639  and  _641
REMARK  262  A    between atoms: _641  and  _642
REMARK  263  A    between atoms: _641  and  _644
REMARK  264  A    between atoms: _644  and  _645
REMARK  265  A    between atoms: _648  and  _650
REMARK  266  A    between atoms: _650  and  _651
REMARK  267  A    between atoms: _654  and  _656
REMARK  268  A    between atoms: _656  and  _657
REMARK  269  A    between atoms: _656  and  _659
REMARK  270  A    between atoms: _659  and  _660
REMARK  271  A    between atoms: _662  and  _664
REMARK  272  A    between atoms: _664  and  _665
REMARK  273  A    between atoms: _664  and  _667
REMARK  274  A    between atoms: _667  and  _668
REMARK  275  A    between atoms: _668  and  _669
REMARK  276  A    between atoms: _673  and  _674
REMARK  277  A    between atoms: _679  and  _681
REMARK  278  A    between atoms: _681  and  _682
REMARK  279  A    between atoms: _681  and  _684
REMARK  280  A    between atoms: _684  and  _685
REMARK  281  A    between atoms: _687  and  _689
REMARK  282  A    between atoms: _689  and  _690
REMARK  283  A    between atoms: _689  and  _692
REMARK  284  A    between atoms: _692  and  _693
REMARK  285  A    between atoms: _693  and  _694
REMARK  286  A    between atoms: _699  and  _701
REMARK  287  A    between atoms: _701  and  _702
REMARK  288  A    between atoms: _701  and  _704
REMARK  289  A    between atoms: _704  and  _705
REMARK  290  A    between atoms: _705  and  _706
REMARK  291  A    between atoms: _711  and  _713
REMARK  292  A    between atoms: _713  and  _714
REMARK  293  A    between atoms: _713  and  _716
REMARK  294  A    between atoms: _716  and  _717
REMARK  295  A    between atoms: _720  and  _722
REMARK  296  A    between atoms: _722  and  _723
REMARK  297  A    between atoms: _722  and  _725
REMARK  298  A    between atoms: _725  and  _726
REMARK  299  A    between atoms: _729  and  _731
REMARK  300  A    between atoms: _731  and  _732
REMARK  301  A    between atoms: _731  and  _734
REMARK  302  A    between atoms: _734  and  _735
REMARK  303  A    between atoms: _741  and  _743
REMARK  304  A    between atoms: _743  and  _744
REMARK  305  A    between atoms: _743  and  _746
REMARK  306  A    between atoms: _746  and  _747
REMARK  307  A    between atoms: _752  and  _753
REMARK  308  A    between atoms: _755  and  _757
REMARK  309  A    between atoms: _757  and  _758
REMARK  310  A    between atoms: _757  and  _760
REMARK  311  A    between atoms: _760  and  _761
REMARK  312  A    between atoms: _767  and  _769
REMARK  313  A    between atoms: _769  and  _770
REMARK  314  A    between atoms: _769  and  _772
REMARK  315  A    between atoms: _772  and  _773
REMARK  316  A    between atoms: _778  and  _780
REMARK  317  A    between atoms: _780  and  _781
REMARK  318  A    between atoms: _780  and  _783
REMARK  319  A    between atoms: _783  and  _784
REMARK  320  A    between atoms: _784  and  _785
REMARK                            x       y       z     vdW  Elec       q    Type
REMARK                         _______ _______ _______ _____ _____    ______ ____
ROOT
ATOM      1  O   HOH     1      13.990  48.272  19.432  0.00  0.00    +0.000 OA
ENDROOT
TORSDOF 0
REMARK  Name = ../refined-set-2016/3drf/3drf_pocket.pdb
REMARK  320 active torsions:
REMARK  status: ('A' for Active; 'I' for Inactive)
REMARK    1  A    between atoms: _1  and  _3
REMARK    2  A    between atoms: _3  and  _4
REMARK    3  A    between atoms: _3  and  _6
REMARK    4  A    between atoms: _6  and  _7
REMARK    5  A    between atoms: _12  and  _13
REMARK    6  A    between atoms: _15  and  _17
REMARK    7  A    between atoms: _17  and  _18
REMARK    8  A    between atoms: _17  and  _20
REMARK    9  A    between atoms: _20  and  _21
REMARK   10  A    between atoms: _21  and  _22
REMARK   11  A    between atoms: _27  and  _29
REMARK   12  A    between atoms: _29  and  _30
REMARK   13  A    between atoms: _29  and  _32
REMARK   14  A    between atoms: _32  and  _33
REMARK   15  A    between atoms: _35  and  _37
REMARK   16  A    between atoms: _37  and  _38
REMARK   17  A    between atoms: _37  and  _40
REMARK   18  A    between atoms: _40  and  _41
REMARK   19  A    between atoms: _44  and  _46
REMARK   20  A    between atoms: _46  and  _47
REMARK   21  A    between atoms: _46  and  _49
REMARK   22  A    between atoms: _49  and  _50
REMARK   23  A    between atoms: _52  and  _54
REMARK   24  A    between atoms: _54  and  _55
REMARK   25  A    between atoms: _54  and  _57
REMARK   26  A    between atoms: _57  and  _58
REMARK   27  A    between atoms: _60  and  _62
REMARK   28  A    between atoms: _62  and  _63
REMARK   29  A    between atoms: _65  and  _67
REMARK   30  A    between atoms: _67  and  _68
REMARK   31  A    between atoms: _67  and  _70
REMARK   32  A    between atoms: _70  and  _71
REMARK   33  A    between atoms: _73  and  _75
REMARK   34  A    between atoms: _75  and  _76
REMARK   35  A    between atoms: _75  and  _78
REMARK   36  A    between atoms: _78  and  _79
REMARK   37  A    between atoms: _84  and  _86
REMARK   38  A    between atoms: _86  and  _87
REMARK   39  A    between atoms: _86  and  _89
REMARK   40  A    between atoms: _89  and  _90
REMARK   41  A    between atoms: _93  and  _95
REMARK   42  A    between atoms: _95  and  _96
REMARK   43  A    between atoms: _99  and  _101
REMARK   44  A    between atoms: _101  and  _102
REMARK   45  A    between atoms: _101  and  _104
REMARK   46  A    between atoms: _104  and  _105
REMARK   47  A    between atoms: _108  and  _110
REMARK   48  A    between atoms: _110  and  _111
REMARK   49  A    between atoms: _110  and  _113
REMARK   50  A    between atoms: _113  and  _114
REMARK   51  A    between atoms: _120  and  _122
REMARK   52  A    between atoms: _122  and  _123
REMARK   53  A    between atoms: _126  and  _128
REMARK   54  A    between atoms: _128  and  _129
REMARK   55  A    between atoms: _128  and  _131
REMARK   56  A    between atoms: _131  and  _132
REMARK   57  A    between atoms: _135  and  _137
REMARK   58  A    between atoms: _137  and  _138
REMARK   59  A    between atoms: _140  and  _142
REMARK   60  A    between atoms: _142  and  _143
REMARK   61  A    between atoms: _142  and  _145
REMARK   62  A    between atoms: _145  and  _146
REMARK   63  A    between atoms: _146  and  _147
REMARK   64  A    between atoms: _152  and  _154
REMARK   65  A    between atoms: _154  and  _155
REMARK   66  A    between atoms: _157  and  _159
REMARK   67  A    between atoms: _159  and  _160
REMARK   68  A    between atoms: _159  and  _162
REMARK   69  A    between atoms: _162  and  _163
REMARK   70  A    between atoms: _166  and  _168
REMARK   71  A    between atoms: _168  and  _169
REMARK   72  A    between atoms: _168  and  _171
REMARK   73  A    between atoms: _171  and  _172
REMARK   74  A    between atoms: _178  and  _180
REMARK   75  A    between atoms: _180  and  _181
REMARK   76  A    between atoms: _180  and  _183
REMARK   77  A    between atoms: _183  and  _184
REMARK   78  A    between atoms: _187  and  _189
REMARK   79  A    between atoms: _189  and  _190
REMARK   80  A    between atoms: _189  and  _192
REMARK   81  A    between atoms: _192  and  _193
REMARK   82  A    between atoms: _199  and  _201
REMARK   83  A    between atoms: _201  and  _202
REMARK   84  A    between atoms: _201  and  _204
REMARK   85  A    between atoms: _204  and  _205
REMARK   86  A    between atoms: _211  and  _213
REMARK   87  A    between atoms: _213  and  _214
REMARK   88  A    between atoms: _213  and  _216
REMARK   89  A    between atoms: _216  and  _217
REMARK   90  A    between atoms: _220  and  _222
REMARK   91  A    between atoms: _222  and  _223
REMARK   92  A    between atoms: _222  and  _225
REMARK   93  A    between atoms: _225  and  _226
REMARK   94  A    between atoms: _229  and  _231
REMARK   95  A    between atoms: _231  and  _232
REMARK   96  A    between atoms: _231  and  _234
REMARK   97  A    between atoms: _234  and  _235
REMARK   98  A    between atoms: _235  and  _236
REMARK   99  A    between atoms: _236  and  _237
REMARK  100  A    between atoms: _246  and  _248
REMARK  101  A    between atoms: _248  and  _249
REMARK  102  A    between atoms: _248  and  _251
REMARK  103  A    between atoms: _251  and  _252
REMARK  104  A    between atoms: _255  and  _257
REMARK  105  A    between atoms: _257  and  _258
REMARK  106  A    between atoms: _257  and  _260
REMARK  107  A    between atoms: _260  and  _261
REMARK  108  A    between atoms: _263  and  _265
REMARK  109  A    between atoms: _265  and  _266
REMARK  110  A    between atoms: _265  and  _268
REMARK  111  A    between atoms: _268  and  _269
REMARK  112  A    between atoms: _269  and  _270
REMARK  113  A    between atoms: _275  and  _277
REMARK  114  A    between atoms: _277  and  _278
REMARK  115  A    between atoms: _277  and  _280
REMARK  116  A    between atoms: _280  and  _281
REMARK  117  A    between atoms: _283  and  _285
REMARK  118  A    between atoms: _285  and  _286
REMARK  119  A    between atoms: _288  and  _290
REMARK  120  A    between atoms: _290  and  _291
REMARK  121  A    between atoms: _290  and  _293
REMARK  122  A    between atoms: _293  and  _294
REMARK  123  A    between atoms: _299  and  _301
REMARK  124  A    between atoms: _301  and  _302
REMARK  125  A    between atoms: _304  and  _306
REMARK  126  A    between atoms: _306  and  _307
REMARK  127  A    between atoms: _306  and  _309
REMARK  128  A    between atoms: _309  and  _310
REMARK  129  A    between atoms: _315  and  _316
REMARK  130  A    between atoms: _318  and  _320
REMARK  131  A    between atoms: _320  and  _321
REMARK  132  A    between atoms: _320  and  _323
REMARK  133  A    between atoms: _323  and  _324
REMARK  134  A    between atoms: _330  and  _332
REMARK  135  A    between atoms: _332  and  _333
REMARK  136  A    between atoms: _332  and  _335
REMARK  137  A    between atoms: _335  and  _336
REMARK  138  A    between atoms: _339  and  _341
REMARK  139  A    between atoms: _341  and  _342
REMARK  140  A    between atoms: _341  and  _344
REMARK  141  A    between atoms: _344  and  _345
REMARK  142  A    between atoms: _345  and  _346
REMARK  143  A    between atoms: _349  and  _351
REMARK  144  A    between atoms: _351  and  _352
REMARK  145  A    between atoms: _351  and  _354
REMARK  146  A    between atoms: _354  and  _355
REMARK  147  A    between atoms: _358  and  _360
REMARK  148  A    between atoms: _360  and  _361
REMARK  149  A    between atoms: _360  and  _363
REMARK  150  A    between atoms: _363  and  _364
REMARK  151  A    between atoms: _367  and  _369
REMARK  152  A    between atoms: _369  and  _370
REMARK  153  A    between atoms: _372  and  _374
REMARK  154  A    between atoms: _374  and  _375
REMARK  155  A    between atoms: _374  and  _377
REMARK  156  A    between atoms: _380  and  _382
REMARK  157  A    between atoms: _382  and  _383
REMARK  158  A    between atoms: _382  and  _385
REMARK  159  A    between atoms: _385  and  _386
REMARK  160  A    between atoms: _388  and  _390
REMARK  161  A    between atoms: _390  and  _391
REMARK  162  A    between atoms: _390  and  _393
REMARK  163  A    between atoms: _393  and  _394
REMARK  164  A    between atoms: _394  and  _395
REMARK  165  A    between atoms: _397  and  _399
REMARK  166  A    between atoms: _399  and  _400
REMARK  167  A    between atoms: _399  and  _402
REMARK  168  A    between atoms: _402  and  _403
REMARK  169  A    between atoms: _408  and  _409
REMARK  170  A    between atoms: _411  and  _413
REMARK  171  A    between atoms: _413  and  _414
REMARK  172  A    between atoms: _413  and  _416
REMARK  173  A    between atoms: _416  and  _417
REMARK  174  A    between atoms: _420  and  _422
REMARK  175  A    between atoms: _422  and  _423
REMARK  176  A    between atoms: _422  and  _425
REMARK  177  A    between atoms: _425  and  _426
REMARK  178  A    between atoms: _428  and  _430
REMARK  179  A    between atoms: _430  and  _431
REMARK  180  A    between atoms: _430  and  _433
REMARK  181  A    between atoms: _433  and  _434
REMARK  182  A    between atoms: _437  and  _439
REMARK  183  A    between atoms: _439  and  _440
REMARK  184  A    between atoms: _439  and  _442
REMARK  185  A    between atoms: _442  and  _443
REMARK  186  A    between atoms: _448  and  _449
REMARK  187  A    between atoms: _451  and  _453
REMARK  188  A    between atoms: _453  and  _454
REMARK  189  A    between atoms: _453  and  _456
REMARK  190  A    between atoms: _456  and  _457
REMARK  191  A    between atoms: _459  and  _461
REMARK  192  A    between atoms: _461  and  _462
REMARK  193  A    between atoms: _461  and  _464
REMARK  194  A    between atoms: _464  and  _465
REMARK  195  A    between atoms: _471  and  _473
REMARK  196  A    between atoms: _473  and  _474
REMARK  197  A    between atoms: _473  and  _476
REMARK  198  A    between atoms: _476  and  _477
REMARK  199  A    between atoms: _477  and  _478
REMARK  200  A    between atoms: _478  and  _479
REMARK  201  A    between atoms: _488  and  _490
REMARK  202  A    between atoms: _490  and  _491
REMARK  203  A    between atoms: _490  and  _493
REMARK  204  A    between atoms: _496  and  _498
REMARK  205  A    between atoms: _498  and  _499
REMARK  206  A    between atoms: _501  and  _503
REMARK  207  A    between atoms: _503  and  _504
REMARK  208  A    between atoms: _503  and  _506
REMARK  209  A    between atoms: _506  and  _507
REMARK  210  A    between atoms: _510  and  _512
REMARK  211  A    between atoms: _512  and  _513
REMARK  212  A    between atoms: _512  and  _515
REMARK  213  A    between atoms: _515  and  _516
REMARK  214  A    between atoms: _516  and  _517
REMARK  215  A    between atoms: _519  and  _521
REMARK  216  A    between atoms: _521  and  _522
REMARK  217  A    between atoms: _521  and  _524
REMARK  218  A    between atoms: _524  and  _525
REMARK  219  A    between atoms: _531  and  _533
REMARK  220  A    between atoms: _533  and  _534
REMARK  221  A    between atoms: _533  and  _536
REMARK  222  A    between atoms: _536  and  _537
REMARK  223  A    between atoms: _542  and  _544
REMARK  224  A    between atoms: _544  and  _545
REMARK  225  A    between atoms: _544  and  _547
REMARK  226  A    between atoms: _547  and  _548
REMARK  227  A    between atoms: _558  and  _560
REMARK  228  A    between atoms: _560  and  _561
REMARK  229  A    between atoms: _560  and  _563
REMARK  230  A    between atoms: _566  and  _568
REMARK  231  A    between atoms: _568  and  _569
REMARK  232  A    between atoms: _568  and  _571
REMARK  233  A    between atoms: _571  and  _572
REMARK  234  A    between atoms: _575  and  _577
REMARK  235  A    between atoms: _577  and  _578
REMARK  236  A    between atoms: _577  and  _580
REMARK  237  A    between atoms: _580  and  _581
REMARK  238  A    between atoms: _581  and  _582
REMARK  239  A    between atoms: _584  and  _586
REMARK  240  A    between atoms: _586  and  _587
REMARK  241  A    between atoms: _586  and  _589
REMARK  242  A    between atoms: _589  and  _590
REMARK  243  A    between atoms: _593  and  _595
REMARK  244  A    between atoms: _595  and  _596
REMARK  245  A    between atoms: _595  and  _598
REMARK  246  A    between atoms: _598  and  _599
REMARK  247  A    between atoms: _602  and  _604
REMARK  248  A    between atoms: _604  and  _605
REMARK  249  A    between atoms: _607  and  _609
REMARK  250  A    between atoms: _609  and  _610
REMARK  251  A    between atoms: _609  and  _612
REMARK  252  A    between atoms: _612  and  _613
REMARK  253  A    between atoms: _615  and  _617
REMARK  254  A    between atoms: _617  and  _618
REMARK  255  A    between atoms: _617  and  _620
REMARK  256  A    between atoms: _620  and  _621
REMARK  257  A    between atoms: _631  and  _633
REMARK  258  A    between atoms: _633  and  _634
REMARK  259  A    between atoms: _633  and  _636
REMARK  260  A    between atoms: _636  and  _637
REMARK  261  A    between atoms: _639  and  _641
REMARK  262  A    between atoms: _641  and  _642
REMARK  263  A    between atoms: _641  and  _644
REMARK  264  A    between atoms: _644  and  _645
REMARK  265  A    between atoms: _648  and  _650
REMARK  266  A    between atoms: _650  and  _651
REMARK  267  A    between atoms: _654  and  _656
REMARK  268  A    between atoms: _656  and  _657
REMARK  269  A    between atoms: _656  and  _659
REMARK  270  A    between atoms: _659  and  _660
REMARK  271  A    between atoms: _662  and  _664
REMARK  272  A    between atoms: _664  and  _665
REMARK  273  A    between atoms: _664  and  _667
REMARK  274  A    between atoms: _667  and  _668
REMARK  275  A    between atoms: _668  and  _669
REMARK  276  A    between atoms: _673  and  _674
REMARK  277  A    between atoms: _679  and  _681
REMARK  278  A    between atoms: _681  and  _682
REMARK  279  A    between atoms: _681  and  _684
REMARK  280  A    between atoms: _684  and  _685
REMARK  281  A    between atoms: _687  and  _689
REMARK  282  A    between atoms: _689  and  _690
REMARK  283  A    between atoms: _689  and  _692
REMARK  284  A    between atoms: _692  and  _693
REMARK  285  A    between atoms: _693  and  _694
REMARK  286  A    between atoms: _699  and  _701
REMARK  287  A    between atoms: _701  and  _702
REMARK  288  A    between atoms: _701  and  _704
REMARK  289  A    between atoms: _704  and  _705
REMARK  290  A    between atoms: _705  and  _706
REMARK  291  A    between atoms: _711  and  _713
REMARK  292  A    between atoms: _713  and  _714
REMARK  293  A    between atoms: _713  and  _716
REMARK  294  A    between atoms: _716  and  _717
REMARK  295  A    between atoms: _720  and  _722
REMARK  296  A    between atoms: _722  and  _723
REMARK  297  A    between atoms: _722  and  _725
REMARK  298  A    between atoms: _725  and  _726
REMARK  299  A    between atoms: _729  and  _731
REMARK  300  A    between atoms: _731  and  _732
REMARK  301  A    between atoms: _731  and  _734
REMARK  302  A    between atoms: _734  and  _735
REMARK  303  A    between atoms: _741  and  _743
REMARK  304  A    between atoms: _743  and  _744
REMARK  305  A    between atoms: _743  and  _746
REMARK  306  A    between atoms: _746  and  _747
REMARK  307  A    between atoms: _752  and  _753
REMARK  308  A    between atoms: _755  and  _757
REMARK  309  A    between atoms: _757  and  _758
REMARK  310  A    between atoms: _757  and  _760
REMARK  311  A    between atoms: _760  and  _761
REMARK  312  A    between atoms: _767  and  _769
REMARK  313  A    between atoms: _769  and  _770
REMARK  314  A    between atoms: _769  and  _772
REMARK  315  A    between atoms: _772  and  _773
REMARK  316  A    between atoms: _778  and  _780
REMARK  317  A    between atoms: _780  and  _781
REMARK  318  A    between atoms: _780  and  _783
REMARK  319  A    between atoms: _783  and  _784
REMARK  320  A    between atoms: _784  and  _785
REMARK                            x       y       z     vdW  Elec       q    Type
REMARK                         _______ _______ _______ _____ _____    ______ ____
ROOT
ATOM      1  O   HOH     1      -4.813  48.468  27.862  0.00  0.00    +0.000 OA
ENDROOT
TORSDOF 0
REMARK  Name = ../refined-set-2016/3drf/3drf_pocket.pdb
REMARK  320 active torsions:
REMARK  status: ('A' for Active; 'I' for Inactive)
REMARK    1  A    between atoms: _1  and  _3
REMARK    2  A    between atoms: _3  and  _4
REMARK    3  A    between atoms: _3  and  _6
REMARK    4  A    between atoms: _6  and  _7
REMARK    5  A    between atoms: _12  and  _13
REMARK    6  A    between atoms: _15  and  _17
REMARK    7  A    between atoms: _17  and  _18
REMARK    8  A    between atoms: _17  and  _20
REMARK    9  A    between atoms: _20  and  _21
REMARK   10  A    between atoms: _21  and  _22
REMARK   11  A    between atoms: _27  and  _29
REMARK   12  A    between atoms: _29  and  _30
REMARK   13  A    between atoms: _29  and  _32
REMARK   14  A    between atoms: _32  and  _33
REMARK   15  A    between atoms: _35  and  _37
REMARK   16  A    between atoms: _37  and  _38
REMARK   17  A    between atoms: _37  and  _40
REMARK   18  A    between atoms: _40  and  _41
REMARK   19  A    between atoms: _44  and  _46
REMARK   20  A    between atoms: _46  and  _47
REMARK   21  A    between atoms: _46  and  _49
REMARK   22  A    between atoms: _49  and  _50
REMARK   23  A    between atoms: _52  and  _54
REMARK   24  A    between atoms: _54  and  _55
REMARK   25  A    between atoms: _54  and  _57
REMARK   26  A    between atoms: _57  and  _58
REMARK   27  A    between atoms: _60  and  _62
REMARK   28  A    between atoms: _62  and  _63
REMARK   29  A    between atoms: _65  and  _67
REMARK   30  A    between atoms: _67  and  _68
REMARK   31  A    between atoms: _67  and  _70
REMARK   32  A    between atoms: _70  and  _71
REMARK   33  A    between atoms: _73  and  _75
REMARK   34  A    between atoms: _75  and  _76
REMARK   35  A    between atoms: _75  and  _78
REMARK   36  A    between atoms: _78  and  _79
REMARK   37  A    between atoms: _84  and  _86
REMARK   38  A    between atoms: _86  and  _87
REMARK   39  A    between atoms: _86  and  _89
REMARK   40  A    between atoms: _89  and  _90
REMARK   41  A    between atoms: _93  and  _95
REMARK   42  A    between atoms: _95  and  _96
REMARK   43  A    between atoms: _99  and  _101
REMARK   44  A    between atoms: _101  and  _102
REMARK   45  A    between atoms: _101  and  _104
REMARK   46  A    between atoms: _104  and  _105
REMARK   47  A    between atoms: _108  and  _110
REMARK   48  A    between atoms: _110  and  _111
REMARK   49  A    between atoms: _110  and  _113
REMARK   50  A    between atoms: _113  and  _114
REMARK   51  A    between atoms: _120  and  _122
REMARK   52  A    between atoms: _122  and  _123
REMARK   53  A    between atoms: _126  and  _128
REMARK   54  A    between atoms: _128  and  _129
REMARK   55  A    between atoms: _128  and  _131
REMARK   56  A    between atoms: _131  and  _132
REMARK   57  A    between atoms: _135  and  _137
REMARK   58  A    between atoms: _137  and  _138
REMARK   59  A    between atoms: _140  and  _142
REMARK   60  A    between atoms: _142  and  _143
REMARK   61  A    between atoms: _142  and  _145
REMARK   62  A    between atoms: _145  and  _146
REMARK   63  A    between atoms: _146  and  _147
REMARK   64  A    between atoms: _152  and  _154
REMARK   65  A    between atoms: _154  and  _155
REMARK   66  A    between atoms: _157  and  _159
REMARK   67  A    between atoms: _159  and  _160
REMARK   68  A    between atoms: _159  and  _162
REMARK   69  A    between atoms: _162  and  _163
REMARK   70  A    between atoms: _166  and  _168
REMARK   71  A    between atoms: _168  and  _169
REMARK   72  A    between atoms: _168  and  _171
REMARK   73  A    between atoms: _171  and  _172
REMARK   74  A    between atoms: _178  and  _180
REMARK   75  A    between atoms: _180  and  _181
REMARK   76  A    between atoms: _180  and  _183
REMARK   77  A    between atoms: _183  and  _184
REMARK   78  A    between atoms: _187  and  _189
REMARK   79  A    between atoms: _189  and  _190
REMARK   80  A    between atoms: _189  and  _192
REMARK   81  A    between atoms: _192  and  _193
REMARK   82  A    between atoms: _199  and  _201
REMARK   83  A    between atoms: _201  and  _202
REMARK   84  A    between atoms: _201  and  _204
REMARK   85  A    between atoms: _204  and  _205
REMARK   86  A    between atoms: _211  and  _213
REMARK   87  A    between atoms: _213  and  _214
REMARK   88  A    between atoms: _213  and  _216
REMARK   89  A    between atoms: _216  and  _217
REMARK   90  A    between atoms: _220  and  _222
REMARK   91  A    between atoms: _222  and  _223
REMARK   92  A    between atoms: _222  and  _225
REMARK   93  A    between atoms: _225  and  _226
REMARK   94  A    between atoms: _229  and  _231
REMARK   95  A    between atoms: _231  and  _232
REMARK   96  A    between atoms: _231  and  _234
REMARK   97  A    between atoms: _234  and  _235
REMARK   98  A    between atoms: _235  and  _236
REMARK   99  A    between atoms: _236  and  _237
REMARK  100  A    between atoms: _246  and  _248
REMARK  101  A    between atoms: _248  and  _249
REMARK  102  A    between atoms: _248  and  _251
REMARK  103  A    between atoms: _251  and  _252
REMARK  104  A    between atoms: _255  and  _257
REMARK  105  A    between atoms: _257  and  _258
REMARK  106  A    between atoms: _257  and  _260
REMARK  107  A    between atoms: _260  and  _261
REMARK  108  A    between atoms: _263  and  _265
REMARK  109  A    between atoms: _265  and  _266
REMARK  110  A    between atoms: _265  and  _268
REMARK  111  A    between atoms: _268  and  _269
REMARK  112  A    between atoms: _269  and  _270
REMARK  113  A    between atoms: _275  and  _277
REMARK  114  A    between atoms: _277  and  _278
REMARK  115  A    between atoms: _277  and  _280
REMARK  116  A    between atoms: _280  and  _281
REMARK  117  A    between atoms: _283  and  _285
REMARK  118  A    between atoms: _285  and  _286
REMARK  119  A    between atoms: _288  and  _290
REMARK  120  A    between atoms: _290  and  _291
REMARK  121  A    between atoms: _290  and  _293
REMARK  122  A    between atoms: _293  and  _294
REMARK  123  A    between atoms: _299  and  _301
REMARK  124  A    between atoms: _301  and  _302
REMARK  125  A    between atoms: _304  and  _306
REMARK  126  A    between atoms: _306  and  _307
REMARK  127  A    between atoms: _306  and  _309
REMARK  128  A    between atoms: _309  and  _310
REMARK  129  A    between atoms: _315  and  _316
REMARK  130  A    between atoms: _318  and  _320
REMARK  131  A    between atoms: _320  and  _321
REMARK  132  A    between atoms: _320  and  _323
REMARK  133  A    between atoms: _323  and  _324
REMARK  134  A    between atoms: _330  and  _332
REMARK  135  A    between atoms: _332  and  _333
REMARK  136  A    between atoms: _332  and  _335
REMARK  137  A    between atoms: _335  and  _336
REMARK  138  A    between atoms: _339  and  _341
REMARK  139  A    between atoms: _341  and  _342
REMARK  140  A    between atoms: _341  and  _344
REMARK  141  A    between atoms: _344  and  _345
REMARK  142  A    between atoms: _345  and  _346
REMARK  143  A    between atoms: _349  and  _351
REMARK  144  A    between atoms: _351  and  _352
REMARK  145  A    between atoms: _351  and  _354
REMARK  146  A    between atoms: _354  and  _355
REMARK  147  A    between atoms: _358  and  _360
REMARK  148  A    between atoms: _360  and  _361
REMARK  149  A    between atoms: _360  and  _363
REMARK  150  A    between atoms: _363  and  _364
REMARK  151  A    between atoms: _367  and  _369
REMARK  152  A    between atoms: _369  and  _370
REMARK  153  A    between atoms: _372  and  _374
REMARK  154  A    between atoms: _374  and  _375
REMARK  155  A    between atoms: _374  and  _377
REMARK  156  A    between atoms: _380  and  _382
REMARK  157  A    between atoms: _382  and  _383
REMARK  158  A    between atoms: _382  and  _385
REMARK  159  A    between atoms: _385  and  _386
REMARK  160  A    between atoms: _388  and  _390
REMARK  161  A    between atoms: _390  and  _391
REMARK  162  A    between atoms: _390  and  _393
REMARK  163  A    between atoms: _393  and  _394
REMARK  164  A    between atoms: _394  and  _395
REMARK  165  A    between atoms: _397  and  _399
REMARK  166  A    between atoms: _399  and  _400
REMARK  167  A    between atoms: _399  and  _402
REMARK  168  A    between atoms: _402  and  _403
REMARK  169  A    between atoms: _408  and  _409
REMARK  170  A    between atoms: _411  and  _413
REMARK  171  A    between atoms: _413  and  _414
REMARK  172  A    between atoms: _413  and  _416
REMARK  173  A    between atoms: _416  and  _417
REMARK  174  A    between atoms: _420  and  _422
REMARK  175  A    between atoms: _422  and  _423
REMARK  176  A    between atoms: _422  and  _425
REMARK  177  A    between atoms: _425  and  _426
REMARK  178  A    between atoms: _428  and  _430
REMARK  179  A    between atoms: _430  and  _431
REMARK  180  A    between atoms: _430  and  _433
REMARK  181  A    between atoms: _433  and  _434
REMARK  182  A    between atoms: _437  and  _439
REMARK  183  A    between atoms: _439  and  _440
REMARK  184  A    between atoms: _439  and  _442
REMARK  185  A    between atoms: _442  and  _443
REMARK  186  A    between atoms: _448  and  _449
REMARK  187  A    between atoms: _451  and  _453
REMARK  188  A    between atoms: _453  and  _454
REMARK  189  A    between atoms: _453  and  _456
REMARK  190  A    between atoms: _456  and  _457
REMARK  191  A    between atoms: _459  and  _461
REMARK  192  A    between atoms: _461  and  _462
REMARK  193  A    between atoms: _461  and  _464
REMARK  194  A    between atoms: _464  and  _465
REMARK  195  A    between atoms: _471  and  _473
REMARK  196  A    between atoms: _473  and  _474
REMARK  197  A    between atoms: _473  and  _476
REMARK  198  A    between atoms: _476  and  _477
REMARK  199  A    between atoms: _477  and  _478
REMARK  200  A    between atoms: _478  and  _479
REMARK  201  A    between atoms: _488  and  _490
REMARK  202  A    between atoms: _490  and  _491
REMARK  203  A    between atoms: _490  and  _493
REMARK  204  A    between atoms: _496  and  _498
REMARK  205  A    between atoms: _498  and  _499
REMARK  206  A    between atoms: _501  and  _503
REMARK  207  A    between atoms: _503  and  _504
REMARK  208  A    between atoms: _503  and  _506
REMARK  209  A    between atoms: _506  and  _507
REMARK  210  A    between atoms: _510  and  _512
REMARK  211  A    between atoms: _512  and  _513
REMARK  212  A    between atoms: _512  and  _515
REMARK  213  A    between atoms: _515  and  _516
REMARK  214  A    between atoms: _516  and  _517
REMARK  215  A    between atoms: _519  and  _521
REMARK  216  A    between atoms: _521  and  _522
REMARK  217  A    between atoms: _521  and  _524
REMARK  218  A    between atoms: _524  and  _525
REMARK  219  A    between atoms: _531  and  _533
REMARK  220  A    between atoms: _533  and  _534
REMARK  221  A    between atoms: _533  and  _536
REMARK  222  A    between atoms: _536  and  _537
REMARK  223  A    between atoms: _542  and  _544
REMARK  224  A    between atoms: _544  and  _545
REMARK  225  A    between atoms: _544  and  _547
REMARK  226  A    between atoms: _547  and  _548
REMARK  227  A    between atoms: _558  and  _560
REMARK  228  A    between atoms: _560  and  _561
REMARK  229  A    between atoms: _560  and  _563
REMARK  230  A    between atoms: _566  and  _568
REMARK  231  A    between atoms: _568  and  _569
REMARK  232  A    between atoms: _568  and  _571
REMARK  233  A    between atoms: _571  and  _572
REMARK  234  A    between atoms: _575  and  _577
REMARK  235  A    between atoms: _577  and  _578
REMARK  236  A    between atoms: _577  and  _580
REMARK  237  A    between atoms: _580  and  _581
REMARK  238  A    between atoms: _581  and  _582
REMARK  239  A    between atoms: _584  and  _586
REMARK  240  A    between atoms: _586  and  _587
REMARK  241  A    between atoms: _586  and  _589
REMARK  242  A    between atoms: _589  and  _590
REMARK  243  A    between atoms: _593  and  _595
REMARK  244  A    between atoms: _595  and  _596
REMARK  245  A    between atoms: _595  and  _598
REMARK  246  A    between atoms: _598  and  _599
REMARK  247  A    between atoms: _602  and  _604
REMARK  248  A    between atoms: _604  and  _605
REMARK  249  A    between atoms: _607  and  _609
REMARK  250  A    between atoms: _609  and  _610
REMARK  251  A    between atoms: _609  and  _612
REMARK  252  A    between atoms: _612  and  _613
REMARK  253  A    between atoms: _615  and  _617
REMARK  254  A    between atoms: _617  and  _618
REMARK  255  A    between atoms: _617  and  _620
REMARK  256  A    between atoms: _620  and  _621
REMARK  257  A    between atoms: _631  and  _633
REMARK  258  A    between atoms: _633  and  _634
REMARK  259  A    between atoms: _633  and  _636
REMARK  260  A    between atoms: _636  and  _637
REMARK  261  A    between atoms: _639  and  _641
REMARK  262  A    between atoms: _641  and  _642
REMARK  263  A    between atoms: _641  and  _644
REMARK  264  A    between atoms: _644  and  _645
REMARK  265  A    between atoms: _648  and  _650
REMARK  266  A    between atoms: _650  and  _651
REMARK  267  A    between atoms: _654  and  _656
REMARK  268  A    between atoms: _656  and  _657
REMARK  269  A    between atoms: _656  and  _659
REMARK  270  A    between atoms: _659  and  _660
REMARK  271  A    between atoms: _662  and  _664
REMARK  272  A    between atoms: _664  and  _665
REMARK  273  A    between atoms: _664  and  _667
REMARK  274  A    between atoms: _667  and  _668
REMARK  275  A    between atoms: _668  and  _669
REMARK  276  A    between atoms: _673  and  _674
REMARK  277  A    between atoms: _679  and  _681
REMARK  278  A    between atoms: _681  and  _682
REMARK  279  A    between atoms: _681  and  _684
REMARK  280  A    between atoms: _684  and  _685
REMARK  281  A    between atoms: _687  and  _689
REMARK  282  A    between atoms: _689  and  _690
REMARK  283  A    between atoms: _689  and  _692
REMARK  284  A    between atoms: _692  and  _693
REMARK  285  A    between atoms: _693  and  _694
REMARK  286  A    between atoms: _699  and  _701
REMARK  287  A    between atoms: _701  and  _702
REMARK  288  A    between atoms: _701  and  _704
REMARK  289  A    between atoms: _704  and  _705
REMARK  290  A    between atoms: _705  and  _706
REMARK  291  A    between atoms: _711  and  _713
REMARK  292  A    between atoms: _713  and  _714
REMARK  293  A    between atoms: _713  and  _716
REMARK  294  A    between atoms: _716  and  _717
REMARK  295  A    between atoms: _720  and  _722
REMARK  296  A    between atoms: _722  and  _723
REMARK  297  A    between atoms: _722  and  _725
REMARK  298  A    between atoms: _725  and  _726
REMARK  299  A    between atoms: _729  and  _731
REMARK  300  A    between atoms: _731  and  _732
REMARK  301  A    between atoms: _731  and  _734
REMARK  302  A    between atoms: _734  and  _735
REMARK  303  A    between atoms: _741  and  _743
REMARK  304  A    between atoms: _743  and  _744
REMARK  305  A    between atoms: _743  and  _746
REMARK  306  A    between atoms: _746  and  _747
REMARK  307  A    between atoms: _752  and  _753
REMARK  308  A    between atoms: _755  and  _757
REMARK  309  A    between atoms: _757  and  _758
REMARK  310  A    between atoms: _757  and  _760
REMARK  311  A    between atoms: _760  and  _761
REMARK  312  A    between atoms: _767  and  _769
REMARK  313  A    between atoms: _769  and  _770
REMARK  314  A    between atoms: _769  and  _772
REMARK  315  A    between atoms: _772  and  _773
REMARK  316  A    between atoms: _778  and  _780
REMARK  317  A    between atoms: _780  and  _781
REMARK  318  A    between atoms: _780  and  _783
REMARK  319  A    between atoms: _783  and  _784
REMARK  320  A    between atoms: _784  and  _785
REMARK                            x       y       z     vdW  Elec       q    Type
REMARK                         _______ _______ _______ _____ _____    ______ ____
ROOT
ATOM      1  O   HOH     1      13.384  40.644  19.784  0.00  0.00    +0.000 OA
ENDROOT
TORSDOF 0
REMARK  Name = ../refined-set-2016/3drf/3drf_pocket.pdb
REMARK  320 active torsions:
REMARK  status: ('A' for Active; 'I' for Inactive)
REMARK    1  A    between atoms: _1  and  _3
REMARK    2  A    between atoms: _3  and  _4
REMARK    3  A    between atoms: _3  and  _6
REMARK    4  A    between atoms: _6  and  _7
REMARK    5  A    between atoms: _12  and  _13
REMARK    6  A    between atoms: _15  and  _17
REMARK    7  A    between atoms: _17  and  _18
REMARK    8  A    between atoms: _17  and  _20
REMARK    9  A    between atoms: _20  and  _21
REMARK   10  A    between atoms: _21  and  _22
REMARK   11  A    between atoms: _27  and  _29
REMARK   12  A    between atoms: _29  and  _30
REMARK   13  A    between atoms: _29  and  _32
REMARK   14  A    between atoms: _32  and  _33
REMARK   15  A    between atoms: _35  and  _37
REMARK   16  A    between atoms: _37  and  _38
REMARK   17  A    between atoms: _37  and  _40
REMARK   18  A    between atoms: _40  and  _41
REMARK   19  A    between atoms: _44  and  _46
REMARK   20  A    between atoms: _46  and  _47
REMARK   21  A    between atoms: _46  and  _49
REMARK   22  A    between atoms: _49  and  _50
REMARK   23  A    between atoms: _52  and  _54
REMARK   24  A    between atoms: _54  and  _55
REMARK   25  A    between atoms: _54  and  _57
REMARK   26  A    between atoms: _57  and  _58
REMARK   27  A    between atoms: _60  and  _62
REMARK   28  A    between atoms: _62  and  _63
REMARK   29  A    between atoms: _65  and  _67
REMARK   30  A    between atoms: _67  and  _68
REMARK   31  A    between atoms: _67  and  _70
REMARK   32  A    between atoms: _70  and  _71
REMARK   33  A    between atoms: _73  and  _75
REMARK   34  A    between atoms: _75  and  _76
REMARK   35  A    between atoms: _75  and  _78
REMARK   36  A    between atoms: _78  and  _79
REMARK   37  A    between atoms: _84  and  _86
REMARK   38  A    between atoms: _86  and  _87
REMARK   39  A    between atoms: _86  and  _89
REMARK   40  A    between atoms: _89  and  _90
REMARK   41  A    between atoms: _93  and  _95
REMARK   42  A    between atoms: _95  and  _96
REMARK   43  A    between atoms: _99  and  _101
REMARK   44  A    between atoms: _101  and  _102
REMARK   45  A    between atoms: _101  and  _104
REMARK   46  A    between atoms: _104  and  _105
REMARK   47  A    between atoms: _108  and  _110
REMARK   48  A    between atoms: _110  and  _111
REMARK   49  A    between atoms: _110  and  _113
REMARK   50  A    between atoms: _113  and  _114
REMARK   51  A    between atoms: _120  and  _122
REMARK   52  A    between atoms: _122  and  _123
REMARK   53  A    between atoms: _126  and  _128
REMARK   54  A    between atoms: _128  and  _129
REMARK   55  A    between atoms: _128  and  _131
REMARK   56  A    between atoms: _131  and  _132
REMARK   57  A    between atoms: _135  and  _137
REMARK   58  A    between atoms: _137  and  _138
REMARK   59  A    between atoms: _140  and  _142
REMARK   60  A    between atoms: _142  and  _143
REMARK   61  A    between atoms: _142  and  _145
REMARK   62  A    between atoms: _145  and  _146
REMARK   63  A    between atoms: _146  and  _147
REMARK   64  A    between atoms: _152  and  _154
REMARK   65  A    between atoms: _154  and  _155
REMARK   66  A    between atoms: _157  and  _159
REMARK   67  A    between atoms: _159  and  _160
REMARK   68  A    between atoms: _159  and  _162
REMARK   69  A    between atoms: _162  and  _163
REMARK   70  A    between atoms: _166  and  _168
REMARK   71  A    between atoms: _168  and  _169
REMARK   72  A    between atoms: _168  and  _171
REMARK   73  A    between atoms: _171  and  _172
REMARK   74  A    between atoms: _178  and  _180
REMARK   75  A    between atoms: _180  and  _181
REMARK   76  A    between atoms: _180  and  _183
REMARK   77  A    between atoms: _183  and  _184
REMARK   78  A    between atoms: _187  and  _189
REMARK   79  A    between atoms: _189  and  _190
REMARK   80  A    between atoms: _189  and  _192
REMARK   81  A    between atoms: _192  and  _193
REMARK   82  A    between atoms: _199  and  _201
REMARK   83  A    between atoms: _201  and  _202
REMARK   84  A    between atoms: _201  and  _204
REMARK   85  A    between atoms: _204  and  _205
REMARK   86  A    between atoms: _211  and  _213
REMARK   87  A    between atoms: _213  and  _214
REMARK   88  A    between atoms: _213  and  _216
REMARK   89  A    between atoms: _216  and  _217
REMARK   90  A    between atoms: _220  and  _222
REMARK   91  A    between atoms: _222  and  _223
REMARK   92  A    between atoms: _222  and  _225
REMARK   93  A    between atoms: _225  and  _226
REMARK   94  A    between atoms: _229  and  _231
REMARK   95  A    between atoms: _231  and  _232
REMARK   96  A    between atoms: _231  and  _234
REMARK   97  A    between atoms: _234  and  _235
REMARK   98  A    between atoms: _235  and  _236
REMARK   99  A    between atoms: _236  and  _237
REMARK  100  A    between atoms: _246  and  _248
REMARK  101  A    between atoms: _248  and  _249
REMARK  102  A    between atoms: _248  and  _251
REMARK  103  A    between atoms: _251  and  _252
REMARK  104  A    between atoms: _255  and  _257
REMARK  105  A    between atoms: _257  and  _258
REMARK  106  A    between atoms: _257  and  _260
REMARK  107  A    between atoms: _260  and  _261
REMARK  108  A    between atoms: _263  and  _265
REMARK  109  A    between atoms: _265  and  _266
REMARK  110  A    between atoms: _265  and  _268
REMARK  111  A    between atoms: _268  and  _269
REMARK  112  A    between atoms: _269  and  _270
REMARK  113  A    between atoms: _275  and  _277
REMARK  114  A    between atoms: _277  and  _278
REMARK  115  A    between atoms: _277  and  _280
REMARK  116  A    between atoms: _280  and  _281
REMARK  117  A    between atoms: _283  and  _285
REMARK  118  A    between atoms: _285  and  _286
REMARK  119  A    between atoms: _288  and  _290
REMARK  120  A    between atoms: _290  and  _291
REMARK  121  A    between atoms: _290  and  _293
REMARK  122  A    between atoms: _293  and  _294
REMARK  123  A    between atoms: _299  and  _301
REMARK  124  A    between atoms: _301  and  _302
REMARK  125  A    between atoms: _304  and  _306
REMARK  126  A    between atoms: _306  and  _307
REMARK  127  A    between atoms: _306  and  _309
REMARK  128  A    between atoms: _309  and  _310
REMARK  129  A    between atoms: _315  and  _316
REMARK  130  A    between atoms: _318  and  _320
REMARK  131  A    between atoms: _320  and  _321
REMARK  132  A    between atoms: _320  and  _323
REMARK  133  A    between atoms: _323  and  _324
REMARK  134  A    between atoms: _330  and  _332
REMARK  135  A    between atoms: _332  and  _333
REMARK  136  A    between atoms: _332  and  _335
REMARK  137  A    between atoms: _335  and  _336
REMARK  138  A    between atoms: _339  and  _341
REMARK  139  A    between atoms: _341  and  _342
REMARK  140  A    between atoms: _341  and  _344
REMARK  141  A    between atoms: _344  and  _345
REMARK  142  A    between atoms: _345  and  _346
REMARK  143  A    between atoms: _349  and  _351
REMARK  144  A    between atoms: _351  and  _352
REMARK  145  A    between atoms: _351  and  _354
REMARK  146  A    between atoms: _354  and  _355
REMARK  147  A    between atoms: _358  and  _360
REMARK  148  A    between atoms: _360  and  _361
REMARK  149  A    between atoms: _360  and  _363
REMARK  150  A    between atoms: _363  and  _364
REMARK  151  A    between atoms: _367  and  _369
REMARK  152  A    between atoms: _369  and  _370
REMARK  153  A    between atoms: _372  and  _374
REMARK  154  A    between atoms: _374  and  _375
REMARK  155  A    between atoms: _374  and  _377
REMARK  156  A    between atoms: _380  and  _382
REMARK  157  A    between atoms: _382  and  _383
REMARK  158  A    between atoms: _382  and  _385
REMARK  159  A    between atoms: _385  and  _386
REMARK  160  A    between atoms: _388  and  _390
REMARK  161  A    between atoms: _390  and  _391
REMARK  162  A    between atoms: _390  and  _393
REMARK  163  A    between atoms: _393  and  _394
REMARK  164  A    between atoms: _394  and  _395
REMARK  165  A    between atoms: _397  and  _399
REMARK  166  A    between atoms: _399  and  _400
REMARK  167  A    between atoms: _399  and  _402
REMARK  168  A    between atoms: _402  and  _403
REMARK  169  A    between atoms: _408  and  _409
REMARK  170  A    between atoms: _411  and  _413
REMARK  171  A    between atoms: _413  and  _414
REMARK  172  A    between atoms: _413  and  _416
REMARK  173  A    between atoms: _416  and  _417
REMARK  174  A    between atoms: _420  and  _422
REMARK  175  A    between atoms: _422  and  _423
REMARK  176  A    between atoms: _422  and  _425
REMARK  177  A    between atoms: _425  and  _426
REMARK  178  A    between atoms: _428  and  _430
REMARK  179  A    between atoms: _430  and  _431
REMARK  180  A    between atoms: _430  and  _433
REMARK  181  A    between atoms: _433  and  _434
REMARK  182  A    between atoms: _437  and  _439
REMARK  183  A    between atoms: _439  and  _440
REMARK  184  A    between atoms: _439  and  _442
REMARK  185  A    between atoms: _442  and  _443
REMARK  186  A    between atoms: _448  and  _449
REMARK  187  A    between atoms: _451  and  _453
REMARK  188  A    between atoms: _453  and  _454
REMARK  189  A    between atoms: _453  and  _456
REMARK  190  A    between atoms: _456  and  _457
REMARK  191  A    between atoms: _459  and  _461
REMARK  192  A    between atoms: _461  and  _462
REMARK  193  A    between atoms: _461  and  _464
REMARK  194  A    between atoms: _464  and  _465
REMARK  195  A    between atoms: _471  and  _473
REMARK  196  A    between atoms: _473  and  _474
REMARK  197  A    between atoms: _473  and  _476
REMARK  198  A    between atoms: _476  and  _477
REMARK  199  A    between atoms: _477  and  _478
REMARK  200  A    between atoms: _478  and  _479
REMARK  201  A    between atoms: _488  and  _490
REMARK  202  A    between atoms: _490  and  _491
REMARK  203  A    between atoms: _490  and  _493
REMARK  204  A    between atoms: _496  and  _498
REMARK  205  A    between atoms: _498  and  _499
REMARK  206  A    between atoms: _501  and  _503
REMARK  207  A    between atoms: _503  and  _504
REMARK  208  A    between atoms: _503  and  _506
REMARK  209  A    between atoms: _506  and  _507
REMARK  210  A    between atoms: _510  and  _512
REMARK  211  A    between atoms: _512  and  _513
REMARK  212  A    between atoms: _512  and  _515
REMARK  213  A    between atoms: _515  and  _516
REMARK  214  A    between atoms: _516  and  _517
REMARK  215  A    between atoms: _519  and  _521
REMARK  216  A    between atoms: _521  and  _522
REMARK  217  A    between atoms: _521  and  _524
REMARK  218  A    between atoms: _524  and  _525
REMARK  219  A    between atoms: _531  and  _533
REMARK  220  A    between atoms: _533  and  _534
REMARK  221  A    between atoms: _533  and  _536
REMARK  222  A    between atoms: _536  and  _537
REMARK  223  A    between atoms: _542  and  _544
REMARK  224  A    between atoms: _544  and  _545
REMARK  225  A    between atoms: _544  and  _547
REMARK  226  A    between atoms: _547  and  _548
REMARK  227  A    between atoms: _558  and  _560
REMARK  228  A    between atoms: _560  and  _561
REMARK  229  A    between atoms: _560  and  _563
REMARK  230  A    between atoms: _566  and  _568
REMARK  231  A    between atoms: _568  and  _569
REMARK  232  A    between atoms: _568  and  _571
REMARK  233  A    between atoms: _571  and  _572
REMARK  234  A    between atoms: _575  and  _577
REMARK  235  A    between atoms: _577  and  _578
REMARK  236  A    between atoms: _577  and  _580
REMARK  237  A    between atoms: _580  and  _581
REMARK  238  A    between atoms: _581  and  _582
REMARK  239  A    between atoms: _584  and  _586
REMARK  240  A    between atoms: _586  and  _587
REMARK  241  A    between atoms: _586  and  _589
REMARK  242  A    between atoms: _589  and  _590
REMARK  243  A    between atoms: _593  and  _595
REMARK  244  A    between atoms: _595  and  _596
REMARK  245  A    between atoms: _595  and  _598
REMARK  246  A    between atoms: _598  and  _599
REMARK  247  A    between atoms: _602  and  _604
REMARK  248  A    between atoms: _604  and  _605
REMARK  249  A    between atoms: _607  and  _609
REMARK  250  A    between atoms: _609  and  _610
REMARK  251  A    between atoms: _609  and  _612
REMARK  252  A    between atoms: _612  and  _613
REMARK  253  A    between atoms: _615  and  _617
REMARK  254  A    between atoms: _617  and  _618
REMARK  255  A    between atoms: _617  and  _620
REMARK  256  A    between atoms: _620  and  _621
REMARK  257  A    between atoms: _631  and  _633
REMARK  258  A    between atoms: _633  and  _634
REMARK  259  A    between atoms: _633  and  _636
REMARK  260  A    between atoms: _636  and  _637
REMARK  261  A    between atoms: _639  and  _641
REMARK  262  A    between atoms: _641  and  _642
REMARK  263  A    between atoms: _641  and  _644
REMARK  264  A    between atoms: _644  and  _645
REMARK  265  A    between atoms: _648  and  _650
REMARK  266  A    between atoms: _650  and  _651
REMARK  267  A    between atoms: _654  and  _656
REMARK  268  A    between atoms: _656  and  _657
REMARK  269  A    between atoms: _656  and  _659
REMARK  270  A    between atoms: _659  and  _660
REMARK  271  A    between atoms: _662  and  _664
REMARK  272  A    between atoms: _664  and  _665
REMARK  273  A    between atoms: _664  and  _667
REMARK  274  A    between atoms: _667  and  _668
REMARK  275  A    between atoms: _668  and  _669
REMARK  276  A    between atoms: _673  and  _674
REMARK  277  A    between atoms: _679  and  _681
REMARK  278  A    between atoms: _681  and  _682
REMARK  279  A    between atoms: _681  and  _684
REMARK  280  A    between atoms: _684  and  _685
REMARK  281  A    between atoms: _687  and  _689
REMARK  282  A    between atoms: _689  and  _690
REMARK  283  A    between atoms: _689  and  _692
REMARK  284  A    between atoms: _692  and  _693
REMARK  285  A    between atoms: _693  and  _694
REMARK  286  A    between atoms: _699  and  _701
REMARK  287  A    between atoms: _701  and  _702
REMARK  288  A    between atoms: _701  and  _704
REMARK  289  A    between atoms: _704  and  _705
REMARK  290  A    between atoms: _705  and  _706
REMARK  291  A    between atoms: _711  and  _713
REMARK  292  A    between atoms: _713  and  _714
REMARK  293  A    between atoms: _713  and  _716
REMARK  294  A    between atoms: _716  and  _717
REMARK  295  A    between atoms: _720  and  _722
REMARK  296  A    between atoms: _722  and  _723
REMARK  297  A    between atoms: _722  and  _725
REMARK  298  A    between atoms: _725  and  _726
REMARK  299  A    between atoms: _729  and  _731
REMARK  300  A    between atoms: _731  and  _732
REMARK  301  A    between atoms: _731  and  _734
REMARK  302  A    between atoms: _734  and  _735
REMARK  303  A    between atoms: _741  and  _743
REMARK  304  A    between atoms: _743  and  _744
REMARK  305  A    between atoms: _743  and  _746
REMARK  306  A    between atoms: _746  and  _747
REMARK  307  A    between atoms: _752  and  _753
REMARK  308  A    between atoms: _755  and  _757
REMARK  309  A    between atoms: _757  and  _758
REMARK  310  A    between atoms: _757  and  _760
REMARK  311  A    between atoms: _760  and  _761
REMARK  312  A    between atoms: _767  and  _769
REMARK  313  A    between atoms: _769  and  _770
REMARK  314  A    between atoms: _769  and  _772
REMARK  315  A    between atoms: _772  and  _773
REMARK  316  A    between atoms: _778  and  _780
REMARK  317  A    between atoms: _780  and  _781
REMARK  318  A    between atoms: _780  and  _783
REMARK  319  A    between atoms: _783  and  _784
REMARK  320  A    between atoms: _784  and  _785
REMARK                            x       y       z     vdW  Elec       q    Type
REMARK                         _______ _______ _______ _____ _____    ______ ____
ROOT
ATOM      1  O   HOH     1       5.459  53.426  29.852  0.00  0.00    +0.000 OA
ENDROOT
TORSDOF 0
REMARK  Name = ../refined-set-2016/3drf/3drf_pocket.pdb
REMARK  320 active torsions:
REMARK  status: ('A' for Active; 'I' for Inactive)
REMARK    1  A    between atoms: _1  and  _3
REMARK    2  A    between atoms: _3  and  _4
REMARK    3  A    between atoms: _3  and  _6
REMARK    4  A    between atoms: _6  and  _7
REMARK    5  A    between atoms: _12  and  _13
REMARK    6  A    between atoms: _15  and  _17
REMARK    7  A    between atoms: _17  and  _18
REMARK    8  A    between atoms: _17  and  _20
REMARK    9  A    between atoms: _20  and  _21
REMARK   10  A    between atoms: _21  and  _22
REMARK   11  A    between atoms: _27  and  _29
REMARK   12  A    between atoms: _29  and  _30
REMARK   13  A    between atoms: _29  and  _32
REMARK   14  A    between atoms: _32  and  _33
REMARK   15  A    between atoms: _35  and  _37
REMARK   16  A    between atoms: _37  and  _38
REMARK   17  A    between atoms: _37  and  _40
REMARK   18  A    between atoms: _40  and  _41
REMARK   19  A    between atoms: _44  and  _46
REMARK   20  A    between atoms: _46  and  _47
REMARK   21  A    between atoms: _46  and  _49
REMARK   22  A    between atoms: _49  and  _50
REMARK   23  A    between atoms: _52  and  _54
REMARK   24  A    between atoms: _54  and  _55
REMARK   25  A    between atoms: _54  and  _57
REMARK   26  A    between atoms: _57  and  _58
REMARK   27  A    between atoms: _60  and  _62
REMARK   28  A    between atoms: _62  and  _63
REMARK   29  A    between atoms: _65  and  _67
REMARK   30  A    between atoms: _67  and  _68
REMARK   31  A    between atoms: _67  and  _70
REMARK   32  A    between atoms: _70  and  _71
REMARK   33  A    between atoms: _73  and  _75
REMARK   34  A    between atoms: _75  and  _76
REMARK   35  A    between atoms: _75  and  _78
REMARK   36  A    between atoms: _78  and  _79
REMARK   37  A    between atoms: _84  and  _86
REMARK   38  A    between atoms: _86  and  _87
REMARK   39  A    between atoms: _86  and  _89
REMARK   40  A    between atoms: _89  and  _90
REMARK   41  A    between atoms: _93  and  _95
REMARK   42  A    between atoms: _95  and  _96
REMARK   43  A    between atoms: _99  and  _101
REMARK   44  A    between atoms: _101  and  _102
REMARK   45  A    between atoms: _101  and  _104
REMARK   46  A    between atoms: _104  and  _105
REMARK   47  A    between atoms: _108  and  _110
REMARK   48  A    between atoms: _110  and  _111
REMARK   49  A    between atoms: _110  and  _113
REMARK   50  A    between atoms: _113  and  _114
REMARK   51  A    between atoms: _120  and  _122
REMARK   52  A    between atoms: _122  and  _123
REMARK   53  A    between atoms: _126  and  _128
REMARK   54  A    between atoms: _128  and  _129
REMARK   55  A    between atoms: _128  and  _131
REMARK   56  A    between atoms: _131  and  _132
REMARK   57  A    between atoms: _135  and  _137
REMARK   58  A    between atoms: _137  and  _138
REMARK   59  A    between atoms: _140  and  _142
REMARK   60  A    between atoms: _142  and  _143
REMARK   61  A    between atoms: _142  and  _145
REMARK   62  A    between atoms: _145  and  _146
REMARK   63  A    between atoms: _146  and  _147
REMARK   64  A    between atoms: _152  and  _154
REMARK   65  A    between atoms: _154  and  _155
REMARK   66  A    between atoms: _157  and  _159
REMARK   67  A    between atoms: _159  and  _160
REMARK   68  A    between atoms: _159  and  _162
REMARK   69  A    between atoms: _162  and  _163
REMARK   70  A    between atoms: _166  and  _168
REMARK   71  A    between atoms: _168  and  _169
REMARK   72  A    between atoms: _168  and  _171
REMARK   73  A    between atoms: _171  and  _172
REMARK   74  A    between atoms: _178  and  _180
REMARK   75  A    between atoms: _180  and  _181
REMARK   76  A    between atoms: _180  and  _183
REMARK   77  A    between atoms: _183  and  _184
REMARK   78  A    between atoms: _187  and  _189
REMARK   79  A    between atoms: _189  and  _190
REMARK   80  A    between atoms: _189  and  _192
REMARK   81  A    between atoms: _192  and  _193
REMARK   82  A    between atoms: _199  and  _201
REMARK   83  A    between atoms: _201  and  _202
REMARK   84  A    between atoms: _201  and  _204
REMARK   85  A    between atoms: _204  and  _205
REMARK   86  A    between atoms: _211  and  _213
REMARK   87  A    between atoms: _213  and  _214
REMARK   88  A    between atoms: _213  and  _216
REMARK   89  A    between atoms: _216  and  _217
REMARK   90  A    between atoms: _220  and  _222
REMARK   91  A    between atoms: _222  and  _223
REMARK   92  A    between atoms: _222  and  _225
REMARK   93  A    between atoms: _225  and  _226
REMARK   94  A    between atoms: _229  and  _231
REMARK   95  A    between atoms: _231  and  _232
REMARK   96  A    between atoms: _231  and  _234
REMARK   97  A    between atoms: _234  and  _235
REMARK   98  A    between atoms: _235  and  _236
REMARK   99  A    between atoms: _236  and  _237
REMARK  100  A    between atoms: _246  and  _248
REMARK  101  A    between atoms: _248  and  _249
REMARK  102  A    between atoms: _248  and  _251
REMARK  103  A    between atoms: _251  and  _252
REMARK  104  A    between atoms: _255  and  _257
REMARK  105  A    between atoms: _257  and  _258
REMARK  106  A    between atoms: _257  and  _260
REMARK  107  A    between atoms: _260  and  _261
REMARK  108  A    between atoms: _263  and  _265
REMARK  109  A    between atoms: _265  and  _266
REMARK  110  A    between atoms: _265  and  _268
REMARK  111  A    between atoms: _268  and  _269
REMARK  112  A    between atoms: _269  and  _270
REMARK  113  A    between atoms: _275  and  _277
REMARK  114  A    between atoms: _277  and  _278
REMARK  115  A    between atoms: _277  and  _280
REMARK  116  A    between atoms: _280  and  _281
REMARK  117  A    between atoms: _283  and  _285
REMARK  118  A    between atoms: _285  and  _286
REMARK  119  A    between atoms: _288  and  _290
REMARK  120  A    between atoms: _290  and  _291
REMARK  121  A    between atoms: _290  and  _293
REMARK  122  A    between atoms: _293  and  _294
REMARK  123  A    between atoms: _299  and  _301
REMARK  124  A    between atoms: _301  and  _302
REMARK  125  A    between atoms: _304  and  _306
REMARK  126  A    between atoms: _306  and  _307
REMARK  127  A    between atoms: _306  and  _309
REMARK  128  A    between atoms: _309  and  _310
REMARK  129  A    between atoms: _315  and  _316
REMARK  130  A    between atoms: _318  and  _320
REMARK  131  A    between atoms: _320  and  _321
REMARK  132  A    between atoms: _320  and  _323
REMARK  133  A    between atoms: _323  and  _324
REMARK  134  A    between atoms: _330  and  _332
REMARK  135  A    between atoms: _332  and  _333
REMARK  136  A    between atoms: _332  and  _335
REMARK  137  A    between atoms: _335  and  _336
REMARK  138  A    between atoms: _339  and  _341
REMARK  139  A    between atoms: _341  and  _342
REMARK  140  A    between atoms: _341  and  _344
REMARK  141  A    between atoms: _344  and  _345
REMARK  142  A    between atoms: _345  and  _346
REMARK  143  A    between atoms: _349  and  _351
REMARK  144  A    between atoms: _351  and  _352
REMARK  145  A    between atoms: _351  and  _354
REMARK  146  A    between atoms: _354  and  _355
REMARK  147  A    between atoms: _358  and  _360
REMARK  148  A    between atoms: _360  and  _361
REMARK  149  A    between atoms: _360  and  _363
REMARK  150  A    between atoms: _363  and  _364
REMARK  151  A    between atoms: _367  and  _369
REMARK  152  A    between atoms: _369  and  _370
REMARK  153  A    between atoms: _372  and  _374
REMARK  154  A    between atoms: _374  and  _375
REMARK  155  A    between atoms: _374  and  _377
REMARK  156  A    between atoms: _380  and  _382
REMARK  157  A    between atoms: _382  and  _383
REMARK  158  A    between atoms: _382  and  _385
REMARK  159  A    between atoms: _385  and  _386
REMARK  160  A    between atoms: _388  and  _390
REMARK  161  A    between atoms: _390  and  _391
REMARK  162  A    between atoms: _390  and  _393
REMARK  163  A    between atoms: _393  and  _394
REMARK  164  A    between atoms: _394  and  _395
REMARK  165  A    between atoms: _397  and  _399
REMARK  166  A    between atoms: _399  and  _400
REMARK  167  A    between atoms: _399  and  _402
REMARK  168  A    between atoms: _402  and  _403
REMARK  169  A    between atoms: _408  and  _409
REMARK  170  A    between atoms: _411  and  _413
REMARK  171  A    between atoms: _413  and  _414
REMARK  172  A    between atoms: _413  and  _416
REMARK  173  A    between atoms: _416  and  _417
REMARK  174  A    between atoms: _420  and  _422
REMARK  175  A    between atoms: _422  and  _423
REMARK  176  A    between atoms: _422  and  _425
REMARK  177  A    between atoms: _425  and  _426
REMARK  178  A    between atoms: _428  and  _430
REMARK  179  A    between atoms: _430  and  _431
REMARK  180  A    between atoms: _430  and  _433
REMARK  181  A    between atoms: _433  and  _434
REMARK  182  A    between atoms: _437  and  _439
REMARK  183  A    between atoms: _439  and  _440
REMARK  184  A    between atoms: _439  and  _442
REMARK  185  A    between atoms: _442  and  _443
REMARK  186  A    between atoms: _448  and  _449
REMARK  187  A    between atoms: _451  and  _453
REMARK  188  A    between atoms: _453  and  _454
REMARK  189  A    between atoms: _453  and  _456
REMARK  190  A    between atoms: _456  and  _457
REMARK  191  A    between atoms: _459  and  _461
REMARK  192  A    between atoms: _461  and  _462
REMARK  193  A    between atoms: _461  and  _464
REMARK  194  A    between atoms: _464  and  _465
REMARK  195  A    between atoms: _471  and  _473
REMARK  196  A    between atoms: _473  and  _474
REMARK  197  A    between atoms: _473  and  _476
REMARK  198  A    between atoms: _476  and  _477
REMARK  199  A    between atoms: _477  and  _478
REMARK  200  A    between atoms: _478  and  _479
REMARK  201  A    between atoms: _488  and  _490
REMARK  202  A    between atoms: _490  and  _491
REMARK  203  A    between atoms: _490  and  _493
REMARK  204  A    between atoms: _496  and  _498
REMARK  205  A    between atoms: _498  and  _499
REMARK  206  A    between atoms: _501  and  _503
REMARK  207  A    between atoms: _503  and  _504
REMARK  208  A    between atoms: _503  and  _506
REMARK  209  A    between atoms: _506  and  _507
REMARK  210  A    between atoms: _510  and  _512
REMARK  211  A    between atoms: _512  and  _513
REMARK  212  A    between atoms: _512  and  _515
REMARK  213  A    between atoms: _515  and  _516
REMARK  214  A    between atoms: _516  and  _517
REMARK  215  A    between atoms: _519  and  _521
REMARK  216  A    between atoms: _521  and  _522
REMARK  217  A    between atoms: _521  and  _524
REMARK  218  A    between atoms: _524  and  _525
REMARK  219  A    between atoms: _531  and  _533
REMARK  220  A    between atoms: _533  and  _534
REMARK  221  A    between atoms: _533  and  _536
REMARK  222  A    between atoms: _536  and  _537
REMARK  223  A    between atoms: _542  and  _544
REMARK  224  A    between atoms: _544  and  _545
REMARK  225  A    between atoms: _544  and  _547
REMARK  226  A    between atoms: _547  and  _548
REMARK  227  A    between atoms: _558  and  _560
REMARK  228  A    between atoms: _560  and  _561
REMARK  229  A    between atoms: _560  and  _563
REMARK  230  A    between atoms: _566  and  _568
REMARK  231  A    between atoms: _568  and  _569
REMARK  232  A    between atoms: _568  and  _571
REMARK  233  A    between atoms: _571  and  _572
REMARK  234  A    between atoms: _575  and  _577
REMARK  235  A    between atoms: _577  and  _578
REMARK  236  A    between atoms: _577  and  _580
REMARK  237  A    between atoms: _580  and  _581
REMARK  238  A    between atoms: _581  and  _582
REMARK  239  A    between atoms: _584  and  _586
REMARK  240  A    between atoms: _586  and  _587
REMARK  241  A    between atoms: _586  and  _589
REMARK  242  A    between atoms: _589  and  _590
REMARK  243  A    between atoms: _593  and  _595
REMARK  244  A    between atoms: _595  and  _596
REMARK  245  A    between atoms: _595  and  _598
REMARK  246  A    between atoms: _598  and  _599
REMARK  247  A    between atoms: _602  and  _604
REMARK  248  A    between atoms: _604  and  _605
REMARK  249  A    between atoms: _607  and  _609
REMARK  250  A    between atoms: _609  and  _610
REMARK  251  A    between atoms: _609  and  _612
REMARK  252  A    between atoms: _612  and  _613
REMARK  253  A    between atoms: _615  and  _617
REMARK  254  A    between atoms: _617  and  _618
REMARK  255  A    between atoms: _617  and  _620
REMARK  256  A    between atoms: _620  and  _621
REMARK  257  A    between atoms: _631  and  _633
REMARK  258  A    between atoms: _633  and  _634
REMARK  259  A    between atoms: _633  and  _636
REMARK  260  A    between atoms: _636  and  _637
REMARK  261  A    between atoms: _639  and  _641
REMARK  262  A    between atoms: _641  and  _642
REMARK  263  A    between atoms: _641  and  _644
REMARK  264  A    between atoms: _644  and  _645
REMARK  265  A    between atoms: _648  and  _650
REMARK  266  A    between atoms: _650  and  _651
REMARK  267  A    between atoms: _654  and  _656
REMARK  268  A    between atoms: _656  and  _657
REMARK  269  A    between atoms: _656  and  _659
REMARK  270  A    between atoms: _659  and  _660
REMARK  271  A    between atoms: _662  and  _664
REMARK  272  A    between atoms: _664  and  _665
REMARK  273  A    between atoms: _664  and  _667
REMARK  274  A    between atoms: _667  and  _668
REMARK  275  A    between atoms: _668  and  _669
REMARK  276  A    between atoms: _673  and  _674
REMARK  277  A    between atoms: _679  and  _681
REMARK  278  A    between atoms: _681  and  _682
REMARK  279  A    between atoms: _681  and  _684
REMARK  280  A    between atoms: _684  and  _685
REMARK  281  A    between atoms: _687  and  _689
REMARK  282  A    between atoms: _689  and  _690
REMARK  283  A    between atoms: _689  and  _692
REMARK  284  A    between atoms: _692  and  _693
REMARK  285  A    between atoms: _693  and  _694
REMARK  286  A    between atoms: _699  and  _701
REMARK  287  A    between atoms: _701  and  _702
REMARK  288  A    between atoms: _701  and  _704
REMARK  289  A    between atoms: _704  and  _705
REMARK  290  A    between atoms: _705  and  _706
REMARK  291  A    between atoms: _711  and  _713
REMARK  292  A    between atoms: _713  and  _714
REMARK  293  A    between atoms: _713  and  _716
REMARK  294  A    between atoms: _716  and  _717
REMARK  295  A    between atoms: _720  and  _722
REMARK  296  A    between atoms: _722  and  _723
REMARK  297  A    between atoms: _722  and  _725
REMARK  298  A    between atoms: _725  and  _726
REMARK  299  A    between atoms: _729  and  _731
REMARK  300  A    between atoms: _731  and  _732
REMARK  301  A    between atoms: _731  and  _734
REMARK  302  A    between atoms: _734  and  _735
REMARK  303  A    between atoms: _741  and  _743
REMARK  304  A    between atoms: _743  and  _744
REMARK  305  A    between atoms: _743  and  _746
REMARK  306  A    between atoms: _746  and  _747
REMARK  307  A    between atoms: _752  and  _753
REMARK  308  A    between atoms: _755  and  _757
REMARK  309  A    between atoms: _757  and  _758
REMARK  310  A    between atoms: _757  and  _760
REMARK  311  A    between atoms: _760  and  _761
REMARK  312  A    between atoms: _767  and  _769
REMARK  313  A    between atoms: _769  and  _770
REMARK  314  A    between atoms: _769  and  _772
REMARK  315  A    between atoms: _772  and  _773
REMARK  316  A    between atoms: _778  and  _780
REMARK  317  A    between atoms: _780  and  _781
REMARK  318  A    between atoms: _780  and  _783
REMARK  319  A    between atoms: _783  and  _784
REMARK  320  A    between atoms: _784  and  _785
REMARK                            x       y       z     vdW  Elec       q    Type
REMARK                         _______ _______ _______ _____ _____    ______ ____
ROOT
ATOM      1  O   HOH     1      16.647  40.705  20.461  0.00  0.00    +0.000 OA
ENDROOT
TORSDOF 0
REMARK  Name = ../refined-set-2016/3drf/3drf_pocket.pdb
REMARK  320 active torsions:
REMARK  status: ('A' for Active; 'I' for Inactive)
REMARK    1  A    between atoms: _1  and  _3
REMARK    2  A    between atoms: _3  and  _4
REMARK    3  A    between atoms: _3  and  _6
REMARK    4  A    between atoms: _6  and  _7
REMARK    5  A    between atoms: _12  and  _13
REMARK    6  A    between atoms: _15  and  _17
REMARK    7  A    between atoms: _17  and  _18
REMARK    8  A    between atoms: _17  and  _20
REMARK    9  A    between atoms: _20  and  _21
REMARK   10  A    between atoms: _21  and  _22
REMARK   11  A    between atoms: _27  and  _29
REMARK   12  A    between atoms: _29  and  _30
REMARK   13  A    between atoms: _29  and  _32
REMARK   14  A    between atoms: _32  and  _33
REMARK   15  A    between atoms: _35  and  _37
REMARK   16  A    between atoms: _37  and  _38
REMARK   17  A    between atoms: _37  and  _40
REMARK   18  A    between atoms: _40  and  _41
REMARK   19  A    between atoms: _44  and  _46
REMARK   20  A    between atoms: _46  and  _47
REMARK   21  A    between atoms: _46  and  _49
REMARK   22  A    between atoms: _49  and  _50
REMARK   23  A    between atoms: _52  and  _54
REMARK   24  A    between atoms: _54  and  _55
REMARK   25  A    between atoms: _54  and  _57
REMARK   26  A    between atoms: _57  and  _58
REMARK   27  A    between atoms: _60  and  _62
REMARK   28  A    between atoms: _62  and  _63
REMARK   29  A    between atoms: _65  and  _67
REMARK   30  A    between atoms: _67  and  _68
REMARK   31  A    between atoms: _67  and  _70
REMARK   32  A    between atoms: _70  and  _71
REMARK   33  A    between atoms: _73  and  _75
REMARK   34  A    between atoms: _75  and  _76
REMARK   35  A    between atoms: _75  and  _78
REMARK   36  A    between atoms: _78  and  _79
REMARK   37  A    between atoms: _84  and  _86
REMARK   38  A    between atoms: _86  and  _87
REMARK   39  A    between atoms: _86  and  _89
REMARK   40  A    between atoms: _89  and  _90
REMARK   41  A    between atoms: _93  and  _95
REMARK   42  A    between atoms: _95  and  _96
REMARK   43  A    between atoms: _99  and  _101
REMARK   44  A    between atoms: _101  and  _102
REMARK   45  A    between atoms: _101  and  _104
REMARK   46  A    between atoms: _104  and  _105
REMARK   47  A    between atoms: _108  and  _110
REMARK   48  A    between atoms: _110  and  _111
REMARK   49  A    between atoms: _110  and  _113
REMARK   50  A    between atoms: _113  and  _114
REMARK   51  A    between atoms: _120  and  _122
REMARK   52  A    between atoms: _122  and  _123
REMARK   53  A    between atoms: _126  and  _128
REMARK   54  A    between atoms: _128  and  _129
REMARK   55  A    between atoms: _128  and  _131
REMARK   56  A    between atoms: _131  and  _132
REMARK   57  A    between atoms: _135  and  _137
REMARK   58  A    between atoms: _137  and  _138
REMARK   59  A    between atoms: _140  and  _142
REMARK   60  A    between atoms: _142  and  _143
REMARK   61  A    between atoms: _142  and  _145
REMARK   62  A    between atoms: _145  and  _146
REMARK   63  A    between atoms: _146  and  _147
REMARK   64  A    between atoms: _152  and  _154
REMARK   65  A    between atoms: _154  and  _155
REMARK   66  A    between atoms: _157  and  _159
REMARK   67  A    between atoms: _159  and  _160
REMARK   68  A    between atoms: _159  and  _162
REMARK   69  A    between atoms: _162  and  _163
REMARK   70  A    between atoms: _166  and  _168
REMARK   71  A    between atoms: _168  and  _169
REMARK   72  A    between atoms: _168  and  _171
REMARK   73  A    between atoms: _171  and  _172
REMARK   74  A    between atoms: _178  and  _180
REMARK   75  A    between atoms: _180  and  _181
REMARK   76  A    between atoms: _180  and  _183
REMARK   77  A    between atoms: _183  and  _184
REMARK   78  A    between atoms: _187  and  _189
REMARK   79  A    between atoms: _189  and  _190
REMARK   80  A    between atoms: _189  and  _192
REMARK   81  A    between atoms: _192  and  _193
REMARK   82  A    between atoms: _199  and  _201
REMARK   83  A    between atoms: _201  and  _202
REMARK   84  A    between atoms: _201  and  _204
REMARK   85  A    between atoms: _204  and  _205
REMARK   86  A    between atoms: _211  and  _213
REMARK   87  A    between atoms: _213  and  _214
REMARK   88  A    between atoms: _213  and  _216
REMARK   89  A    between atoms: _216  and  _217
REMARK   90  A    between atoms: _220  and  _222
REMARK   91  A    between atoms: _222  and  _223
REMARK   92  A    between atoms: _222  and  _225
REMARK   93  A    between atoms: _225  and  _226
REMARK   94  A    between atoms: _229  and  _231
REMARK   95  A    between atoms: _231  and  _232
REMARK   96  A    between atoms: _231  and  _234
REMARK   97  A    between atoms: _234  and  _235
REMARK   98  A    between atoms: _235  and  _236
REMARK   99  A    between atoms: _236  and  _237
REMARK  100  A    between atoms: _246  and  _248
REMARK  101  A    between atoms: _248  and  _249
REMARK  102  A    between atoms: _248  and  _251
REMARK  103  A    between atoms: _251  and  _252
REMARK  104  A    between atoms: _255  and  _257
REMARK  105  A    between atoms: _257  and  _258
REMARK  106  A    between atoms: _257  and  _260
REMARK  107  A    between atoms: _260  and  _261
REMARK  108  A    between atoms: _263  and  _265
REMARK  109  A    between atoms: _265  and  _266
REMARK  110  A    between atoms: _265  and  _268
REMARK  111  A    between atoms: _268  and  _269
REMARK  112  A    between atoms: _269  and  _270
REMARK  113  A    between atoms: _275  and  _277
REMARK  114  A    between atoms: _277  and  _278
REMARK  115  A    between atoms: _277  and  _280
REMARK  116  A    between atoms: _280  and  _281
REMARK  117  A    between atoms: _283  and  _285
REMARK  118  A    between atoms: _285  and  _286
REMARK  119  A    between atoms: _288  and  _290
REMARK  120  A    between atoms: _290  and  _291
REMARK  121  A    between atoms: _290  and  _293
REMARK  122  A    between atoms: _293  and  _294
REMARK  123  A    between atoms: _299  and  _301
REMARK  124  A    between atoms: _301  and  _302
REMARK  125  A    between atoms: _304  and  _306
REMARK  126  A    between atoms: _306  and  _307
REMARK  127  A    between atoms: _306  and  _309
REMARK  128  A    between atoms: _309  and  _310
REMARK  129  A    between atoms: _315  and  _316
REMARK  130  A    between atoms: _318  and  _320
REMARK  131  A    between atoms: _320  and  _321
REMARK  132  A    between atoms: _320  and  _323
REMARK  133  A    between atoms: _323  and  _324
REMARK  134  A    between atoms: _330  and  _332
REMARK  135  A    between atoms: _332  and  _333
REMARK  136  A    between atoms: _332  and  _335
REMARK  137  A    between atoms: _335  and  _336
REMARK  138  A    between atoms: _339  and  _341
REMARK  139  A    between atoms: _341  and  _342
REMARK  140  A    between atoms: _341  and  _344
REMARK  141  A    between atoms: _344  and  _345
REMARK  142  A    between atoms: _345  and  _346
REMARK  143  A    between atoms: _349  and  _351
REMARK  144  A    between atoms: _351  and  _352
REMARK  145  A    between atoms: _351  and  _354
REMARK  146  A    between atoms: _354  and  _355
REMARK  147  A    between atoms: _358  and  _360
REMARK  148  A    between atoms: _360  and  _361
REMARK  149  A    between atoms: _360  and  _363
REMARK  150  A    between atoms: _363  and  _364
REMARK  151  A    between atoms: _367  and  _369
REMARK  152  A    between atoms: _369  and  _370
REMARK  153  A    between atoms: _372  and  _374
REMARK  154  A    between atoms: _374  and  _375
REMARK  155  A    between atoms: _374  and  _377
REMARK  156  A    between atoms: _380  and  _382
REMARK  157  A    between atoms: _382  and  _383
REMARK  158  A    between atoms: _382  and  _385
REMARK  159  A    between atoms: _385  and  _386
REMARK  160  A    between atoms: _388  and  _390
REMARK  161  A    between atoms: _390  and  _391
REMARK  162  A    between atoms: _390  and  _393
REMARK  163  A    between atoms: _393  and  _394
REMARK  164  A    between atoms: _394  and  _395
REMARK  165  A    between atoms: _397  and  _399
REMARK  166  A    between atoms: _399  and  _400
REMARK  167  A    between atoms: _399  and  _402
REMARK  168  A    between atoms: _402  and  _403
REMARK  169  A    between atoms: _408  and  _409
REMARK  170  A    between atoms: _411  and  _413
REMARK  171  A    between atoms: _413  and  _414
REMARK  172  A    between atoms: _413  and  _416
REMARK  173  A    between atoms: _416  and  _417
REMARK  174  A    between atoms: _420  and  _422
REMARK  175  A    between atoms: _422  and  _423
REMARK  176  A    between atoms: _422  and  _425
REMARK  177  A    between atoms: _425  and  _426
REMARK  178  A    between atoms: _428  and  _430
REMARK  179  A    between atoms: _430  and  _431
REMARK  180  A    between atoms: _430  and  _433
REMARK  181  A    between atoms: _433  and  _434
REMARK  182  A    between atoms: _437  and  _439
REMARK  183  A    between atoms: _439  and  _440
REMARK  184  A    between atoms: _439  and  _442
REMARK  185  A    between atoms: _442  and  _443
REMARK  186  A    between atoms: _448  and  _449
REMARK  187  A    between atoms: _451  and  _453
REMARK  188  A    between atoms: _453  and  _454
REMARK  189  A    between atoms: _453  and  _456
REMARK  190  A    between atoms: _456  and  _457
REMARK  191  A    between atoms: _459  and  _461
REMARK  192  A    between atoms: _461  and  _462
REMARK  193  A    between atoms: _461  and  _464
REMARK  194  A    between atoms: _464  and  _465
REMARK  195  A    between atoms: _471  and  _473
REMARK  196  A    between atoms: _473  and  _474
REMARK  197  A    between atoms: _473  and  _476
REMARK  198  A    between atoms: _476  and  _477
REMARK  199  A    between atoms: _477  and  _478
REMARK  200  A    between atoms: _478  and  _479
REMARK  201  A    between atoms: _488  and  _490
REMARK  202  A    between atoms: _490  and  _491
REMARK  203  A    between atoms: _490  and  _493
REMARK  204  A    between atoms: _496  and  _498
REMARK  205  A    between atoms: _498  and  _499
REMARK  206  A    between atoms: _501  and  _503
REMARK  207  A    between atoms: _503  and  _504
REMARK  208  A    between atoms: _503  and  _506
REMARK  209  A    between atoms: _506  and  _507
REMARK  210  A    between atoms: _510  and  _512
REMARK  211  A    between atoms: _512  and  _513
REMARK  212  A    between atoms: _512  and  _515
REMARK  213  A    between atoms: _515  and  _516
REMARK  214  A    between atoms: _516  and  _517
REMARK  215  A    between atoms: _519  and  _521
REMARK  216  A    between atoms: _521  and  _522
REMARK  217  A    between atoms: _521  and  _524
REMARK  218  A    between atoms: _524  and  _525
REMARK  219  A    between atoms: _531  and  _533
REMARK  220  A    between atoms: _533  and  _534
REMARK  221  A    between atoms: _533  and  _536
REMARK  222  A    between atoms: _536  and  _537
REMARK  223  A    between atoms: _542  and  _544
REMARK  224  A    between atoms: _544  and  _545
REMARK  225  A    between atoms: _544  and  _547
REMARK  226  A    between atoms: _547  and  _548
REMARK  227  A    between atoms: _558  and  _560
REMARK  228  A    between atoms: _560  and  _561
REMARK  229  A    between atoms: _560  and  _563
REMARK  230  A    between atoms: _566  and  _568
REMARK  231  A    between atoms: _568  and  _569
REMARK  232  A    between atoms: _568  and  _571
REMARK  233  A    between atoms: _571  and  _572
REMARK  234  A    between atoms: _575  and  _577
REMARK  235  A    between atoms: _577  and  _578
REMARK  236  A    between atoms: _577  and  _580
REMARK  237  A    between atoms: _580  and  _581
REMARK  238  A    between atoms: _581  and  _582
REMARK  239  A    between atoms: _584  and  _586
REMARK  240  A    between atoms: _586  and  _587
REMARK  241  A    between atoms: _586  and  _589
REMARK  242  A    between atoms: _589  and  _590
REMARK  243  A    between atoms: _593  and  _595
REMARK  244  A    between atoms: _595  and  _596
REMARK  245  A    between atoms: _595  and  _598
REMARK  246  A    between atoms: _598  and  _599
REMARK  247  A    between atoms: _602  and  _604
REMARK  248  A    between atoms: _604  and  _605
REMARK  249  A    between atoms: _607  and  _609
REMARK  250  A    between atoms: _609  and  _610
REMARK  251  A    between atoms: _609  and  _612
REMARK  252  A    between atoms: _612  and  _613
REMARK  253  A    between atoms: _615  and  _617
REMARK  254  A    between atoms: _617  and  _618
REMARK  255  A    between atoms: _617  and  _620
REMARK  256  A    between atoms: _620  and  _621
REMARK  257  A    between atoms: _631  and  _633
REMARK  258  A    between atoms: _633  and  _634
REMARK  259  A    between atoms: _633  and  _636
REMARK  260  A    between atoms: _636  and  _637
REMARK  261  A    between atoms: _639  and  _641
REMARK  262  A    between atoms: _641  and  _642
REMARK  263  A    between atoms: _641  and  _644
REMARK  264  A    between atoms: _644  and  _645
REMARK  265  A    between atoms: _648  and  _650
REMARK  266  A    between atoms: _650  and  _651
REMARK  267  A    between atoms: _654  and  _656
REMARK  268  A    between atoms: _656  and  _657
REMARK  269  A    between atoms: _656  and  _659
REMARK  270  A    between atoms: _659  and  _660
REMARK  271  A    between atoms: _662  and  _664
REMARK  272  A    between atoms: _664  and  _665
REMARK  273  A    between atoms: _664  and  _667
REMARK  274  A    between atoms: _667  and  _668
REMARK  275  A    between atoms: _668  and  _669
REMARK  276  A    between atoms: _673  and  _674
REMARK  277  A    between atoms: _679  and  _681
REMARK  278  A    between atoms: _681  and  _682
REMARK  279  A    between atoms: _681  and  _684
REMARK  280  A    between atoms: _684  and  _685
REMARK  281  A    between atoms: _687  and  _689
REMARK  282  A    between atoms: _689  and  _690
REMARK  283  A    between atoms: _689  and  _692
REMARK  284  A    between atoms: _692  and  _693
REMARK  285  A    between atoms: _693  and  _694
REMARK  286  A    between atoms: _699  and  _701
REMARK  287  A    between atoms: _701  and  _702
REMARK  288  A    between atoms: _701  and  _704
REMARK  289  A    between atoms: _704  and  _705
REMARK  290  A    between atoms: _705  and  _706
REMARK  291  A    between atoms: _711  and  _713
REMARK  292  A    between atoms: _713  and  _714
REMARK  293  A    between atoms: _713  and  _716
REMARK  294  A    between atoms: _716  and  _717
REMARK  295  A    between atoms: _720  and  _722
REMARK  296  A    between atoms: _722  and  _723
REMARK  297  A    between atoms: _722  and  _725
REMARK  298  A    between atoms: _725  and  _726
REMARK  299  A    between atoms: _729  and  _731
REMARK  300  A    between atoms: _731  and  _732
REMARK  301  A    between atoms: _731  and  _734
REMARK  302  A    between atoms: _734  and  _735
REMARK  303  A    between atoms: _741  and  _743
REMARK  304  A    between atoms: _743  and  _744
REMARK  305  A    between atoms: _743  and  _746
REMARK  306  A    between atoms: _746  and  _747
REMARK  307  A    between atoms: _752  and  _753
REMARK  308  A    between atoms: _755  and  _757
REMARK  309  A    between atoms: _757  and  _758
REMARK  310  A    between atoms: _757  and  _760
REMARK  311  A    between atoms: _760  and  _761
REMARK  312  A    between atoms: _767  and  _769
REMARK  313  A    between atoms: _769  and  _770
REMARK  314  A    between atoms: _769  and  _772
REMARK  315  A    between atoms: _772  and  _773
REMARK  316  A    between atoms: _778  and  _780
REMARK  317  A    between atoms: _780  and  _781
REMARK  318  A    between atoms: _780  and  _783
REMARK  319  A    between atoms: _783  and  _784
REMARK  320  A    between atoms: _784  and  _785
REMARK                            x       y       z     vdW  Elec       q    Type
REMARK                         _______ _______ _______ _____ _____    ______ ____
ROOT
ATOM      1  O   HOH     1       1.688  50.190  34.472  0.00  0.00    +0.000 OA
ENDROOT
TORSDOF 0
REMARK  Name = ../refined-set-2016/3drf/3drf_pocket.pdb
REMARK  320 active torsions:
REMARK  status: ('A' for Active; 'I' for Inactive)
REMARK    1  A    between atoms: _1  and  _3
REMARK    2  A    between atoms: _3  and  _4
REMARK    3  A    between atoms: _3  and  _6
REMARK    4  A    between atoms: _6  and  _7
REMARK    5  A    between atoms: _12  and  _13
REMARK    6  A    between atoms: _15  and  _17
REMARK    7  A    between atoms: _17  and  _18
REMARK    8  A    between atoms: _17  and  _20
REMARK    9  A    between atoms: _20  and  _21
REMARK   10  A    between atoms: _21  and  _22
REMARK   11  A    between atoms: _27  and  _29
REMARK   12  A    between atoms: _29  and  _30
REMARK   13  A    between atoms: _29  and  _32
REMARK   14  A    between atoms: _32  and  _33
REMARK   15  A    between atoms: _35  and  _37
REMARK   16  A    between atoms: _37  and  _38
REMARK   17  A    between atoms: _37  and  _40
REMARK   18  A    between atoms: _40  and  _41
REMARK   19  A    between atoms: _44  and  _46
REMARK   20  A    between atoms: _46  and  _47
REMARK   21  A    between atoms: _46  and  _49
REMARK   22  A    between atoms: _49  and  _50
REMARK   23  A    between atoms: _52  and  _54
REMARK   24  A    between atoms: _54  and  _55
REMARK   25  A    between atoms: _54  and  _57
REMARK   26  A    between atoms: _57  and  _58
REMARK   27  A    between atoms: _60  and  _62
REMARK   28  A    between atoms: _62  and  _63
REMARK   29  A    between atoms: _65  and  _67
REMARK   30  A    between atoms: _67  and  _68
REMARK   31  A    between atoms: _67  and  _70
REMARK   32  A    between atoms: _70  and  _71
REMARK   33  A    between atoms: _73  and  _75
REMARK   34  A    between atoms: _75  and  _76
REMARK   35  A    between atoms: _75  and  _78
REMARK   36  A    between atoms: _78  and  _79
REMARK   37  A    between atoms: _84  and  _86
REMARK   38  A    between atoms: _86  and  _87
REMARK   39  A    between atoms: _86  and  _89
REMARK   40  A    between atoms: _89  and  _90
REMARK   41  A    between atoms: _93  and  _95
REMARK   42  A    between atoms: _95  and  _96
REMARK   43  A    between atoms: _99  and  _101
REMARK   44  A    between atoms: _101  and  _102
REMARK   45  A    between atoms: _101  and  _104
REMARK   46  A    between atoms: _104  and  _105
REMARK   47  A    between atoms: _108  and  _110
REMARK   48  A    between atoms: _110  and  _111
REMARK   49  A    between atoms: _110  and  _113
REMARK   50  A    between atoms: _113  and  _114
REMARK   51  A    between atoms: _120  and  _122
REMARK   52  A    between atoms: _122  and  _123
REMARK   53  A    between atoms: _126  and  _128
REMARK   54  A    between atoms: _128  and  _129
REMARK   55  A    between atoms: _128  and  _131
REMARK   56  A    between atoms: _131  and  _132
REMARK   57  A    between atoms: _135  and  _137
REMARK   58  A    between atoms: _137  and  _138
REMARK   59  A    between atoms: _140  and  _142
REMARK   60  A    between atoms: _142  and  _143
REMARK   61  A    between atoms: _142  and  _145
REMARK   62  A    between atoms: _145  and  _146
REMARK   63  A    between atoms: _146  and  _147
REMARK   64  A    between atoms: _152  and  _154
REMARK   65  A    between atoms: _154  and  _155
REMARK   66  A    between atoms: _157  and  _159
REMARK   67  A    between atoms: _159  and  _160
REMARK   68  A    between atoms: _159  and  _162
REMARK   69  A    between atoms: _162  and  _163
REMARK   70  A    between atoms: _166  and  _168
REMARK   71  A    between atoms: _168  and  _169
REMARK   72  A    between atoms: _168  and  _171
REMARK   73  A    between atoms: _171  and  _172
REMARK   74  A    between atoms: _178  and  _180
REMARK   75  A    between atoms: _180  and  _181
REMARK   76  A    between atoms: _180  and  _183
REMARK   77  A    between atoms: _183  and  _184
REMARK   78  A    between atoms: _187  and  _189
REMARK   79  A    between atoms: _189  and  _190
REMARK   80  A    between atoms: _189  and  _192
REMARK   81  A    between atoms: _192  and  _193
REMARK   82  A    between atoms: _199  and  _201
REMARK   83  A    between atoms: _201  and  _202
REMARK   84  A    between atoms: _201  and  _204
REMARK   85  A    between atoms: _204  and  _205
REMARK   86  A    between atoms: _211  and  _213
REMARK   87  A    between atoms: _213  and  _214
REMARK   88  A    between atoms: _213  and  _216
REMARK   89  A    between atoms: _216  and  _217
REMARK   90  A    between atoms: _220  and  _222
REMARK   91  A    between atoms: _222  and  _223
REMARK   92  A    between atoms: _222  and  _225
REMARK   93  A    between atoms: _225  and  _226
REMARK   94  A    between atoms: _229  and  _231
REMARK   95  A    between atoms: _231  and  _232
REMARK   96  A    between atoms: _231  and  _234
REMARK   97  A    between atoms: _234  and  _235
REMARK   98  A    between atoms: _235  and  _236
REMARK   99  A    between atoms: _236  and  _237
REMARK  100  A    between atoms: _246  and  _248
REMARK  101  A    between atoms: _248  and  _249
REMARK  102  A    between atoms: _248  and  _251
REMARK  103  A    between atoms: _251  and  _252
REMARK  104  A    between atoms: _255  and  _257
REMARK  105  A    between atoms: _257  and  _258
REMARK  106  A    between atoms: _257  and  _260
REMARK  107  A    between atoms: _260  and  _261
REMARK  108  A    between atoms: _263  and  _265
REMARK  109  A    between atoms: _265  and  _266
REMARK  110  A    between atoms: _265  and  _268
REMARK  111  A    between atoms: _268  and  _269
REMARK  112  A    between atoms: _269  and  _270
REMARK  113  A    between atoms: _275  and  _277
REMARK  114  A    between atoms: _277  and  _278
REMARK  115  A    between atoms: _277  and  _280
REMARK  116  A    between atoms: _280  and  _281
REMARK  117  A    between atoms: _283  and  _285
REMARK  118  A    between atoms: _285  and  _286
REMARK  119  A    between atoms: _288  and  _290
REMARK  120  A    between atoms: _290  and  _291
REMARK  121  A    between atoms: _290  and  _293
REMARK  122  A    between atoms: _293  and  _294
REMARK  123  A    between atoms: _299  and  _301
REMARK  124  A    between atoms: _301  and  _302
REMARK  125  A    between atoms: _304  and  _306
REMARK  126  A    between atoms: _306  and  _307
REMARK  127  A    between atoms: _306  and  _309
REMARK  128  A    between atoms: _309  and  _310
REMARK  129  A    between atoms: _315  and  _316
REMARK  130  A    between atoms: _318  and  _320
REMARK  131  A    between atoms: _320  and  _321
REMARK  132  A    between atoms: _320  and  _323
REMARK  133  A    between atoms: _323  and  _324
REMARK  134  A    between atoms: _330  and  _332
REMARK  135  A    between atoms: _332  and  _333
REMARK  136  A    between atoms: _332  and  _335
REMARK  137  A    between atoms: _335  and  _336
REMARK  138  A    between atoms: _339  and  _341
REMARK  139  A    between atoms: _341  and  _342
REMARK  140  A    between atoms: _341  and  _344
REMARK  141  A    between atoms: _344  and  _345
REMARK  142  A    between atoms: _345  and  _346
REMARK  143  A    between atoms: _349  and  _351
REMARK  144  A    between atoms: _351  and  _352
REMARK  145  A    between atoms: _351  and  _354
REMARK  146  A    between atoms: _354  and  _355
REMARK  147  A    between atoms: _358  and  _360
REMARK  148  A    between atoms: _360  and  _361
REMARK  149  A    between atoms: _360  and  _363
REMARK  150  A    between atoms: _363  and  _364
REMARK  151  A    between atoms: _367  and  _369
REMARK  152  A    between atoms: _369  and  _370
REMARK  153  A    between atoms: _372  and  _374
REMARK  154  A    between atoms: _374  and  _375
REMARK  155  A    between atoms: _374  and  _377
REMARK  156  A    between atoms: _380  and  _382
REMARK  157  A    between atoms: _382  and  _383
REMARK  158  A    between atoms: _382  and  _385
REMARK  159  A    between atoms: _385  and  _386
REMARK  160  A    between atoms: _388  and  _390
REMARK  161  A    between atoms: _390  and  _391
REMARK  162  A    between atoms: _390  and  _393
REMARK  163  A    between atoms: _393  and  _394
REMARK  164  A    between atoms: _394  and  _395
REMARK  165  A    between atoms: _397  and  _399
REMARK  166  A    between atoms: _399  and  _400
REMARK  167  A    between atoms: _399  and  _402
REMARK  168  A    between atoms: _402  and  _403
REMARK  169  A    between atoms: _408  and  _409
REMARK  170  A    between atoms: _411  and  _413
REMARK  171  A    between atoms: _413  and  _414
REMARK  172  A    between atoms: _413  and  _416
REMARK  173  A    between atoms: _416  and  _417
REMARK  174  A    between atoms: _420  and  _422
REMARK  175  A    between atoms: _422  and  _423
REMARK  176  A    between atoms: _422  and  _425
REMARK  177  A    between atoms: _425  and  _426
REMARK  178  A    between atoms: _428  and  _430
REMARK  179  A    between atoms: _430  and  _431
REMARK  180  A    between atoms: _430  and  _433
REMARK  181  A    between atoms: _433  and  _434
REMARK  182  A    between atoms: _437  and  _439
REMARK  183  A    between atoms: _439  and  _440
REMARK  184  A    between atoms: _439  and  _442
REMARK  185  A    between atoms: _442  and  _443
REMARK  186  A    between atoms: _448  and  _449
REMARK  187  A    between atoms: _451  and  _453
REMARK  188  A    between atoms: _453  and  _454
REMARK  189  A    between atoms: _453  and  _456
REMARK  190  A    between atoms: _456  and  _457
REMARK  191  A    between atoms: _459  and  _461
REMARK  192  A    between atoms: _461  and  _462
REMARK  193  A    between atoms: _461  and  _464
REMARK  194  A    between atoms: _464  and  _465
REMARK  195  A    between atoms: _471  and  _473
REMARK  196  A    between atoms: _473  and  _474
REMARK  197  A    between atoms: _473  and  _476
REMARK  198  A    between atoms: _476  and  _477
REMARK  199  A    between atoms: _477  and  _478
REMARK  200  A    between atoms: _478  and  _479
REMARK  201  A    between atoms: _488  and  _490
REMARK  202  A    between atoms: _490  and  _491
REMARK  203  A    between atoms: _490  and  _493
REMARK  204  A    between atoms: _496  and  _498
REMARK  205  A    between atoms: _498  and  _499
REMARK  206  A    between atoms: _501  and  _503
REMARK  207  A    between atoms: _503  and  _504
REMARK  208  A    between atoms: _503  and  _506
REMARK  209  A    between atoms: _506  and  _507
REMARK  210  A    between atoms: _510  and  _512
REMARK  211  A    between atoms: _512  and  _513
REMARK  212  A    between atoms: _512  and  _515
REMARK  213  A    between atoms: _515  and  _516
REMARK  214  A    between atoms: _516  and  _517
REMARK  215  A    between atoms: _519  and  _521
REMARK  216  A    between atoms: _521  and  _522
REMARK  217  A    between atoms: _521  and  _524
REMARK  218  A    between atoms: _524  and  _525
REMARK  219  A    between atoms: _531  and  _533
REMARK  220  A    between atoms: _533  and  _534
REMARK  221  A    between atoms: _533  and  _536
REMARK  222  A    between atoms: _536  and  _537
REMARK  223  A    between atoms: _542  and  _544
REMARK  224  A    between atoms: _544  and  _545
REMARK  225  A    between atoms: _544  and  _547
REMARK  226  A    between atoms: _547  and  _548
REMARK  227  A    between atoms: _558  and  _560
REMARK  228  A    between atoms: _560  and  _561
REMARK  229  A    between atoms: _560  and  _563
REMARK  230  A    between atoms: _566  and  _568
REMARK  231  A    between atoms: _568  and  _569
REMARK  232  A    between atoms: _568  and  _571
REMARK  233  A    between atoms: _571  and  _572
REMARK  234  A    between atoms: _575  and  _577
REMARK  235  A    between atoms: _577  and  _578
REMARK  236  A    between atoms: _577  and  _580
REMARK  237  A    between atoms: _580  and  _581
REMARK  238  A    between atoms: _581  and  _582
REMARK  239  A    between atoms: _584  and  _586
REMARK  240  A    between atoms: _586  and  _587
REMARK  241  A    between atoms: _586  and  _589
REMARK  242  A    between atoms: _589  and  _590
REMARK  243  A    between atoms: _593  and  _595
REMARK  244  A    between atoms: _595  and  _596
REMARK  245  A    between atoms: _595  and  _598
REMARK  246  A    between atoms: _598  and  _599
REMARK  247  A    between atoms: _602  and  _604
REMARK  248  A    between atoms: _604  and  _605
REMARK  249  A    between atoms: _607  and  _609
REMARK  250  A    between atoms: _609  and  _610
REMARK  251  A    between atoms: _609  and  _612
REMARK  252  A    between atoms: _612  and  _613
REMARK  253  A    between atoms: _615  and  _617
REMARK  254  A    between atoms: _617  and  _618
REMARK  255  A    between atoms: _617  and  _620
REMARK  256  A    between atoms: _620  and  _621
REMARK  257  A    between atoms: _631  and  _633
REMARK  258  A    between atoms: _633  and  _634
REMARK  259  A    between atoms: _633  and  _636
REMARK  260  A    between atoms: _636  and  _637
REMARK  261  A    between atoms: _639  and  _641
REMARK  262  A    between atoms: _641  and  _642
REMARK  263  A    between atoms: _641  and  _644
REMARK  264  A    between atoms: _644  and  _645
REMARK  265  A    between atoms: _648  and  _650
REMARK  266  A    between atoms: _650  and  _651
REMARK  267  A    between atoms: _654  and  _656
REMARK  268  A    between atoms: _656  and  _657
REMARK  269  A    between atoms: _656  and  _659
REMARK  270  A    between atoms: _659  and  _660
REMARK  271  A    between atoms: _662  and  _664
REMARK  272  A    between atoms: _664  and  _665
REMARK  273  A    between atoms: _664  and  _667
REMARK  274  A    between atoms: _667  and  _668
REMARK  275  A    between atoms: _668  and  _669
REMARK  276  A    between atoms: _673  and  _674
REMARK  277  A    between atoms: _679  and  _681
REMARK  278  A    between atoms: _681  and  _682
REMARK  279  A    between atoms: _681  and  _684
REMARK  280  A    between atoms: _684  and  _685
REMARK  281  A    between atoms: _687  and  _689
REMARK  282  A    between atoms: _689  and  _690
REMARK  283  A    between atoms: _689  and  _692
REMARK  284  A    between atoms: _692  and  _693
REMARK  285  A    between atoms: _693  and  _694
REMARK  286  A    between atoms: _699  and  _701
REMARK  287  A    between atoms: _701  and  _702
REMARK  288  A    between atoms: _701  and  _704
REMARK  289  A    between atoms: _704  and  _705
REMARK  290  A    between atoms: _705  and  _706
REMARK  291  A    between atoms: _711  and  _713
REMARK  292  A    between atoms: _713  and  _714
REMARK  293  A    between atoms: _713  and  _716
REMARK  294  A    between atoms: _716  and  _717
REMARK  295  A    between atoms: _720  and  _722
REMARK  296  A    between atoms: _722  and  _723
REMARK  297  A    between atoms: _722  and  _725
REMARK  298  A    between atoms: _725  and  _726
REMARK  299  A    between atoms: _729  and  _731
REMARK  300  A    between atoms: _731  and  _732
REMARK  301  A    between atoms: _731  and  _734
REMARK  302  A    between atoms: _734  and  _735
REMARK  303  A    between atoms: _741  and  _743
REMARK  304  A    between atoms: _743  and  _744
REMARK  305  A    between atoms: _743  and  _746
REMARK  306  A    between atoms: _746  and  _747
REMARK  307  A    between atoms: _752  and  _753
REMARK  308  A    between atoms: _755  and  _757
REMARK  309  A    between atoms: _757  and  _758
REMARK  310  A    between atoms: _757  and  _760
REMARK  311  A    between atoms: _760  and  _761
REMARK  312  A    between atoms: _767  and  _769
REMARK  313  A    between atoms: _769  and  _770
REMARK  314  A    between atoms: _769  and  _772
REMARK  315  A    between atoms: _772  and  _773
REMARK  316  A    between atoms: _778  and  _780
REMARK  317  A    between atoms: _780  and  _781
REMARK  318  A    between atoms: _780  and  _783
REMARK  319  A    between atoms: _783  and  _784
REMARK  320  A    between atoms: _784  and  _785
REMARK                            x       y       z     vdW  Elec       q    Type
REMARK                         _______ _______ _______ _____ _____    ______ ____
ROOT
ATOM      1  O   HOH     1      -0.548  46.920  23.681  0.00  0.00    +0.000 OA
ENDROOT
TORSDOF 0
REMARK  Name = ../refined-set-2016/3drf/3drf_pocket.pdb
REMARK  320 active torsions:
REMARK  status: ('A' for Active; 'I' for Inactive)
REMARK    1  A    between atoms: _1  and  _3
REMARK    2  A    between atoms: _3  and  _4
REMARK    3  A    between atoms: _3  and  _6
REMARK    4  A    between atoms: _6  and  _7
REMARK    5  A    between atoms: _12  and  _13
REMARK    6  A    between atoms: _15  and  _17
REMARK    7  A    between atoms: _17  and  _18
REMARK    8  A    between atoms: _17  and  _20
REMARK    9  A    between atoms: _20  and  _21
REMARK   10  A    between atoms: _21  and  _22
REMARK   11  A    between atoms: _27  and  _29
REMARK   12  A    between atoms: _29  and  _30
REMARK   13  A    between atoms: _29  and  _32
REMARK   14  A    between atoms: _32  and  _33
REMARK   15  A    between atoms: _35  and  _37
REMARK   16  A    between atoms: _37  and  _38
REMARK   17  A    between atoms: _37  and  _40
REMARK   18  A    between atoms: _40  and  _41
REMARK   19  A    between atoms: _44  and  _46
REMARK   20  A    between atoms: _46  and  _47
REMARK   21  A    between atoms: _46  and  _49
REMARK   22  A    between atoms: _49  and  _50
REMARK   23  A    between atoms: _52  and  _54
REMARK   24  A    between atoms: _54  and  _55
REMARK   25  A    between atoms: _54  and  _57
REMARK   26  A    between atoms: _57  and  _58
REMARK   27  A    between atoms: _60  and  _62
REMARK   28  A    between atoms: _62  and  _63
REMARK   29  A    between atoms: _65  and  _67
REMARK   30  A    between atoms: _67  and  _68
REMARK   31  A    between atoms: _67  and  _70
REMARK   32  A    between atoms: _70  and  _71
REMARK   33  A    between atoms: _73  and  _75
REMARK   34  A    between atoms: _75  and  _76
REMARK   35  A    between atoms: _75  and  _78
REMARK   36  A    between atoms: _78  and  _79
REMARK   37  A    between atoms: _84  and  _86
REMARK   38  A    between atoms: _86  and  _87
REMARK   39  A    between atoms: _86  and  _89
REMARK   40  A    between atoms: _89  and  _90
REMARK   41  A    between atoms: _93  and  _95
REMARK   42  A    between atoms: _95  and  _96
REMARK   43  A    between atoms: _99  and  _101
REMARK   44  A    between atoms: _101  and  _102
REMARK   45  A    between atoms: _101  and  _104
REMARK   46  A    between atoms: _104  and  _105
REMARK   47  A    between atoms: _108  and  _110
REMARK   48  A    between atoms: _110  and  _111
REMARK   49  A    between atoms: _110  and  _113
REMARK   50  A    between atoms: _113  and  _114
REMARK   51  A    between atoms: _120  and  _122
REMARK   52  A    between atoms: _122  and  _123
REMARK   53  A    between atoms: _126  and  _128
REMARK   54  A    between atoms: _128  and  _129
REMARK   55  A    between atoms: _128  and  _131
REMARK   56  A    between atoms: _131  and  _132
REMARK   57  A    between atoms: _135  and  _137
REMARK   58  A    between atoms: _137  and  _138
REMARK   59  A    between atoms: _140  and  _142
REMARK   60  A    between atoms: _142  and  _143
REMARK   61  A    between atoms: _142  and  _145
REMARK   62  A    between atoms: _145  and  _146
REMARK   63  A    between atoms: _146  and  _147
REMARK   64  A    between atoms: _152  and  _154
REMARK   65  A    between atoms: _154  and  _155
REMARK   66  A    between atoms: _157  and  _159
REMARK   67  A    between atoms: _159  and  _160
REMARK   68  A    between atoms: _159  and  _162
REMARK   69  A    between atoms: _162  and  _163
REMARK   70  A    between atoms: _166  and  _168
REMARK   71  A    between atoms: _168  and  _169
REMARK   72  A    between atoms: _168  and  _171
REMARK   73  A    between atoms: _171  and  _172
REMARK   74  A    between atoms: _178  and  _180
REMARK   75  A    between atoms: _180  and  _181
REMARK   76  A    between atoms: _180  and  _183
REMARK   77  A    between atoms: _183  and  _184
REMARK   78  A    between atoms: _187  and  _189
REMARK   79  A    between atoms: _189  and  _190
REMARK   80  A    between atoms: _189  and  _192
REMARK   81  A    between atoms: _192  and  _193
REMARK   82  A    between atoms: _199  and  _201
REMARK   83  A    between atoms: _201  and  _202
REMARK   84  A    between atoms: _201  and  _204
REMARK   85  A    between atoms: _204  and  _205
REMARK   86  A    between atoms: _211  and  _213
REMARK   87  A    between atoms: _213  and  _214
REMARK   88  A    between atoms: _213  and  _216
REMARK   89  A    between atoms: _216  and  _217
REMARK   90  A    between atoms: _220  and  _222
REMARK   91  A    between atoms: _222  and  _223
REMARK   92  A    between atoms: _222  and  _225
REMARK   93  A    between atoms: _225  and  _226
REMARK   94  A    between atoms: _229  and  _231
REMARK   95  A    between atoms: _231  and  _232
REMARK   96  A    between atoms: _231  and  _234
REMARK   97  A    between atoms: _234  and  _235
REMARK   98  A    between atoms: _235  and  _236
REMARK   99  A    between atoms: _236  and  _237
REMARK  100  A    between atoms: _246  and  _248
REMARK  101  A    between atoms: _248  and  _249
REMARK  102  A    between atoms: _248  and  _251
REMARK  103  A    between atoms: _251  and  _252
REMARK  104  A    between atoms: _255  and  _257
REMARK  105  A    between atoms: _257  and  _258
REMARK  106  A    between atoms: _257  and  _260
REMARK  107  A    between atoms: _260  and  _261
REMARK  108  A    between atoms: _263  and  _265
REMARK  109  A    between atoms: _265  and  _266
REMARK  110  A    between atoms: _265  and  _268
REMARK  111  A    between atoms: _268  and  _269
REMARK  112  A    between atoms: _269  and  _270
REMARK  113  A    between atoms: _275  and  _277
REMARK  114  A    between atoms: _277  and  _278
REMARK  115  A    between atoms: _277  and  _280
REMARK  116  A    between atoms: _280  and  _281
REMARK  117  A    between atoms: _283  and  _285
REMARK  118  A    between atoms: _285  and  _286
REMARK  119  A    between atoms: _288  and  _290
REMARK  120  A    between atoms: _290  and  _291
REMARK  121  A    between atoms: _290  and  _293
REMARK  122  A    between atoms: _293  and  _294
REMARK  123  A    between atoms: _299  and  _301
REMARK  124  A    between atoms: _301  and  _302
REMARK  125  A    between atoms: _304  and  _306
REMARK  126  A    between atoms: _306  and  _307
REMARK  127  A    between atoms: _306  and  _309
REMARK  128  A    between atoms: _309  and  _310
REMARK  129  A    between atoms: _315  and  _316
REMARK  130  A    between atoms: _318  and  _320
REMARK  131  A    between atoms: _320  and  _321
REMARK  132  A    between atoms: _320  and  _323
REMARK  133  A    between atoms: _323  and  _324
REMARK  134  A    between atoms: _330  and  _332
REMARK  135  A    between atoms: _332  and  _333
REMARK  136  A    between atoms: _332  and  _335
REMARK  137  A    between atoms: _335  and  _336
REMARK  138  A    between atoms: _339  and  _341
REMARK  139  A    between atoms: _341  and  _342
REMARK  140  A    between atoms: _341  and  _344
REMARK  141  A    between atoms: _344  and  _345
REMARK  142  A    between atoms: _345  and  _346
REMARK  143  A    between atoms: _349  and  _351
REMARK  144  A    between atoms: _351  and  _352
REMARK  145  A    between atoms: _351  and  _354
REMARK  146  A    between atoms: _354  and  _355
REMARK  147  A    between atoms: _358  and  _360
REMARK  148  A    between atoms: _360  and  _361
REMARK  149  A    between atoms: _360  and  _363
REMARK  150  A    between atoms: _363  and  _364
REMARK  151  A    between atoms: _367  and  _369
REMARK  152  A    between atoms: _369  and  _370
REMARK  153  A    between atoms: _372  and  _374
REMARK  154  A    between atoms: _374  and  _375
REMARK  155  A    between atoms: _374  and  _377
REMARK  156  A    between atoms: _380  and  _382
REMARK  157  A    between atoms: _382  and  _383
REMARK  158  A    between atoms: _382  and  _385
REMARK  159  A    between atoms: _385  and  _386
REMARK  160  A    between atoms: _388  and  _390
REMARK  161  A    between atoms: _390  and  _391
REMARK  162  A    between atoms: _390  and  _393
REMARK  163  A    between atoms: _393  and  _394
REMARK  164  A    between atoms: _394  and  _395
REMARK  165  A    between atoms: _397  and  _399
REMARK  166  A    between atoms: _399  and  _400
REMARK  167  A    between atoms: _399  and  _402
REMARK  168  A    between atoms: _402  and  _403
REMARK  169  A    between atoms: _408  and  _409
REMARK  170  A    between atoms: _411  and  _413
REMARK  171  A    between atoms: _413  and  _414
REMARK  172  A    between atoms: _413  and  _416
REMARK  173  A    between atoms: _416  and  _417
REMARK  174  A    between atoms: _420  and  _422
REMARK  175  A    between atoms: _422  and  _423
REMARK  176  A    between atoms: _422  and  _425
REMARK  177  A    between atoms: _425  and  _426
REMARK  178  A    between atoms: _428  and  _430
REMARK  179  A    between atoms: _430  and  _431
REMARK  180  A    between atoms: _430  and  _433
REMARK  181  A    between atoms: _433  and  _434
REMARK  182  A    between atoms: _437  and  _439
REMARK  183  A    between atoms: _439  and  _440
REMARK  184  A    between atoms: _439  and  _442
REMARK  185  A    between atoms: _442  and  _443
REMARK  186  A    between atoms: _448  and  _449
REMARK  187  A    between atoms: _451  and  _453
REMARK  188  A    between atoms: _453  and  _454
REMARK  189  A    between atoms: _453  and  _456
REMARK  190  A    between atoms: _456  and  _457
REMARK  191  A    between atoms: _459  and  _461
REMARK  192  A    between atoms: _461  and  _462
REMARK  193  A    between atoms: _461  and  _464
REMARK  194  A    between atoms: _464  and  _465
REMARK  195  A    between atoms: _471  and  _473
REMARK  196  A    between atoms: _473  and  _474
REMARK  197  A    between atoms: _473  and  _476
REMARK  198  A    between atoms: _476  and  _477
REMARK  199  A    between atoms: _477  and  _478
REMARK  200  A    between atoms: _478  and  _479
REMARK  201  A    between atoms: _488  and  _490
REMARK  202  A    between atoms: _490  and  _491
REMARK  203  A    between atoms: _490  and  _493
REMARK  204  A    between atoms: _496  and  _498
REMARK  205  A    between atoms: _498  and  _499
REMARK  206  A    between atoms: _501  and  _503
REMARK  207  A    between atoms: _503  and  _504
REMARK  208  A    between atoms: _503  and  _506
REMARK  209  A    between atoms: _506  and  _507
REMARK  210  A    between atoms: _510  and  _512
REMARK  211  A    between atoms: _512  and  _513
REMARK  212  A    between atoms: _512  and  _515
REMARK  213  A    between atoms: _515  and  _516
REMARK  214  A    between atoms: _516  and  _517
REMARK  215  A    between atoms: _519  and  _521
REMARK  216  A    between atoms: _521  and  _522
REMARK  217  A    between atoms: _521  and  _524
REMARK  218  A    between atoms: _524  and  _525
REMARK  219  A    between atoms: _531  and  _533
REMARK  220  A    between atoms: _533  and  _534
REMARK  221  A    between atoms: _533  and  _536
REMARK  222  A    between atoms: _536  and  _537
REMARK  223  A    between atoms: _542  and  _544
REMARK  224  A    between atoms: _544  and  _545
REMARK  225  A    between atoms: _544  and  _547
REMARK  226  A    between atoms: _547  and  _548
REMARK  227  A    between atoms: _558  and  _560
REMARK  228  A    between atoms: _560  and  _561
REMARK  229  A    between atoms: _560  and  _563
REMARK  230  A    between atoms: _566  and  _568
REMARK  231  A    between atoms: _568  and  _569
REMARK  232  A    between atoms: _568  and  _571
REMARK  233  A    between atoms: _571  and  _572
REMARK  234  A    between atoms: _575  and  _577
REMARK  235  A    between atoms: _577  and  _578
REMARK  236  A    between atoms: _577  and  _580
REMARK  237  A    between atoms: _580  and  _581
REMARK  238  A    between atoms: _581  and  _582
REMARK  239  A    between atoms: _584  and  _586
REMARK  240  A    between atoms: _586  and  _587
REMARK  241  A    between atoms: _586  and  _589
REMARK  242  A    between atoms: _589  and  _590
REMARK  243  A    between atoms: _593  and  _595
REMARK  244  A    between atoms: _595  and  _596
REMARK  245  A    between atoms: _595  and  _598
REMARK  246  A    between atoms: _598  and  _599
REMARK  247  A    between atoms: _602  and  _604
REMARK  248  A    between atoms: _604  and  _605
REMARK  249  A    between atoms: _607  and  _609
REMARK  250  A    between atoms: _609  and  _610
REMARK  251  A    between atoms: _609  and  _612
REMARK  252  A    between atoms: _612  and  _613
REMARK  253  A    between atoms: _615  and  _617
REMARK  254  A    between atoms: _617  and  _618
REMARK  255  A    between atoms: _617  and  _620
REMARK  256  A    between atoms: _620  and  _621
REMARK  257  A    between atoms: _631  and  _633
REMARK  258  A    between atoms: _633  and  _634
REMARK  259  A    between atoms: _633  and  _636
REMARK  260  A    between atoms: _636  and  _637
REMARK  261  A    between atoms: _639  and  _641
REMARK  262  A    between atoms: _641  and  _642
REMARK  263  A    between atoms: _641  and  _644
REMARK  264  A    between atoms: _644  and  _645
REMARK  265  A    between atoms: _648  and  _650
REMARK  266  A    between atoms: _650  and  _651
REMARK  267  A    between atoms: _654  and  _656
REMARK  268  A    between atoms: _656  and  _657
REMARK  269  A    between atoms: _656  and  _659
REMARK  270  A    between atoms: _659  and  _660
REMARK  271  A    between atoms: _662  and  _664
REMARK  272  A    between atoms: _664  and  _665
REMARK  273  A    between atoms: _664  and  _667
REMARK  274  A    between atoms: _667  and  _668
REMARK  275  A    between atoms: _668  and  _669
REMARK  276  A    between atoms: _673  and  _674
REMARK  277  A    between atoms: _679  and  _681
REMARK  278  A    between atoms: _681  and  _682
REMARK  279  A    between atoms: _681  and  _684
REMARK  280  A    between atoms: _684  and  _685
REMARK  281  A    between atoms: _687  and  _689
REMARK  282  A    between atoms: _689  and  _690
REMARK  283  A    between atoms: _689  and  _692
REMARK  284  A    between atoms: _692  and  _693
REMARK  285  A    between atoms: _693  and  _694
REMARK  286  A    between atoms: _699  and  _701
REMARK  287  A    between atoms: _701  and  _702
REMARK  288  A    between atoms: _701  and  _704
REMARK  289  A    between atoms: _704  and  _705
REMARK  290  A    between atoms: _705  and  _706
REMARK  291  A    between atoms: _711  and  _713
REMARK  292  A    between atoms: _713  and  _714
REMARK  293  A    between atoms: _713  and  _716
REMARK  294  A    between atoms: _716  and  _717
REMARK  295  A    between atoms: _720  and  _722
REMARK  296  A    between atoms: _722  and  _723
REMARK  297  A    between atoms: _722  and  _725
REMARK  298  A    between atoms: _725  and  _726
REMARK  299  A    between atoms: _729  and  _731
REMARK  300  A    between atoms: _731  and  _732
REMARK  301  A    between atoms: _731  and  _734
REMARK  302  A    between atoms: _734  and  _735
REMARK  303  A    between atoms: _741  and  _743
REMARK  304  A    between atoms: _743  and  _744
REMARK  305  A    between atoms: _743  and  _746
REMARK  306  A    between atoms: _746  and  _747
REMARK  307  A    between atoms: _752  and  _753
REMARK  308  A    between atoms: _755  and  _757
REMARK  309  A    between atoms: _757  and  _758
REMARK  310  A    between atoms: _757  and  _760
REMARK  311  A    between atoms: _760  and  _761
REMARK  312  A    between atoms: _767  and  _769
REMARK  313  A    between atoms: _769  and  _770
REMARK  314  A    between atoms: _769  and  _772
REMARK  315  A    between atoms: _772  and  _773
REMARK  316  A    between atoms: _778  and  _780
REMARK  317  A    between atoms: _780  and  _781
REMARK  318  A    between atoms: _780  and  _783
REMARK  319  A    between atoms: _783  and  _784
REMARK  320  A    between atoms: _784  and  _785
REMARK                            x       y       z     vdW  Elec       q    Type
REMARK                         _______ _______ _______ _____ _____    ______ ____
ROOT
ATOM      1  O   HOH     1      -4.057  54.014  32.086  0.00  0.00    +0.000 OA
ENDROOT
TORSDOF 0
REMARK  Name = ../refined-set-2016/3drf/3drf_pocket.pdb
REMARK  320 active torsions:
REMARK  status: ('A' for Active; 'I' for Inactive)
REMARK    1  A    between atoms: _1  and  _3
REMARK    2  A    between atoms: _3  and  _4
REMARK    3  A    between atoms: _3  and  _6
REMARK    4  A    between atoms: _6  and  _7
REMARK    5  A    between atoms: _12  and  _13
REMARK    6  A    between atoms: _15  and  _17
REMARK    7  A    between atoms: _17  and  _18
REMARK    8  A    between atoms: _17  and  _20
REMARK    9  A    between atoms: _20  and  _21
REMARK   10  A    between atoms: _21  and  _22
REMARK   11  A    between atoms: _27  and  _29
REMARK   12  A    between atoms: _29  and  _30
REMARK   13  A    between atoms: _29  and  _32
REMARK   14  A    between atoms: _32  and  _33
REMARK   15  A    between atoms: _35  and  _37
REMARK   16  A    between atoms: _37  and  _38
REMARK   17  A    between atoms: _37  and  _40
REMARK   18  A    between atoms: _40  and  _41
REMARK   19  A    between atoms: _44  and  _46
REMARK   20  A    between atoms: _46  and  _47
REMARK   21  A    between atoms: _46  and  _49
REMARK   22  A    between atoms: _49  and  _50
REMARK   23  A    between atoms: _52  and  _54
REMARK   24  A    between atoms: _54  and  _55
REMARK   25  A    between atoms: _54  and  _57
REMARK   26  A    between atoms: _57  and  _58
REMARK   27  A    between atoms: _60  and  _62
REMARK   28  A    between atoms: _62  and  _63
REMARK   29  A    between atoms: _65  and  _67
REMARK   30  A    between atoms: _67  and  _68
REMARK   31  A    between atoms: _67  and  _70
REMARK   32  A    between atoms: _70  and  _71
REMARK   33  A    between atoms: _73  and  _75
REMARK   34  A    between atoms: _75  and  _76
REMARK   35  A    between atoms: _75  and  _78
REMARK   36  A    between atoms: _78  and  _79
REMARK   37  A    between atoms: _84  and  _86
REMARK   38  A    between atoms: _86  and  _87
REMARK   39  A    between atoms: _86  and  _89
REMARK   40  A    between atoms: _89  and  _90
REMARK   41  A    between atoms: _93  and  _95
REMARK   42  A    between atoms: _95  and  _96
REMARK   43  A    between atoms: _99  and  _101
REMARK   44  A    between atoms: _101  and  _102
REMARK   45  A    between atoms: _101  and  _104
REMARK   46  A    between atoms: _104  and  _105
REMARK   47  A    between atoms: _108  and  _110
REMARK   48  A    between atoms: _110  and  _111
REMARK   49  A    between atoms: _110  and  _113
REMARK   50  A    between atoms: _113  and  _114
REMARK   51  A    between atoms: _120  and  _122
REMARK   52  A    between atoms: _122  and  _123
REMARK   53  A    between atoms: _126  and  _128
REMARK   54  A    between atoms: _128  and  _129
REMARK   55  A    between atoms: _128  and  _131
REMARK   56  A    between atoms: _131  and  _132
REMARK   57  A    between atoms: _135  and  _137
REMARK   58  A    between atoms: _137  and  _138
REMARK   59  A    between atoms: _140  and  _142
REMARK   60  A    between atoms: _142  and  _143
REMARK   61  A    between atoms: _142  and  _145
REMARK   62  A    between atoms: _145  and  _146
REMARK   63  A    between atoms: _146  and  _147
REMARK   64  A    between atoms: _152  and  _154
REMARK   65  A    between atoms: _154  and  _155
REMARK   66  A    between atoms: _157  and  _159
REMARK   67  A    between atoms: _159  and  _160
REMARK   68  A    between atoms: _159  and  _162
REMARK   69  A    between atoms: _162  and  _163
REMARK   70  A    between atoms: _166  and  _168
REMARK   71  A    between atoms: _168  and  _169
REMARK   72  A    between atoms: _168  and  _171
REMARK   73  A    between atoms: _171  and  _172
REMARK   74  A    between atoms: _178  and  _180
REMARK   75  A    between atoms: _180  and  _181
REMARK   76  A    between atoms: _180  and  _183
REMARK   77  A    between atoms: _183  and  _184
REMARK   78  A    between atoms: _187  and  _189
REMARK   79  A    between atoms: _189  and  _190
REMARK   80  A    between atoms: _189  and  _192
REMARK   81  A    between atoms: _192  and  _193
REMARK   82  A    between atoms: _199  and  _201
REMARK   83  A    between atoms: _201  and  _202
REMARK   84  A    between atoms: _201  and  _204
REMARK   85  A    between atoms: _204  and  _205
REMARK   86  A    between atoms: _211  and  _213
REMARK   87  A    between atoms: _213  and  _214
REMARK   88  A    between atoms: _213  and  _216
REMARK   89  A    between atoms: _216  and  _217
REMARK   90  A    between atoms: _220  and  _222
REMARK   91  A    between atoms: _222  and  _223
REMARK   92  A    between atoms: _222  and  _225
REMARK   93  A    between atoms: _225  and  _226
REMARK   94  A    between atoms: _229  and  _231
REMARK   95  A    between atoms: _231  and  _232
REMARK   96  A    between atoms: _231  and  _234
REMARK   97  A    between atoms: _234  and  _235
REMARK   98  A    between atoms: _235  and  _236
REMARK   99  A    between atoms: _236  and  _237
REMARK  100  A    between atoms: _246  and  _248
REMARK  101  A    between atoms: _248  and  _249
REMARK  102  A    between atoms: _248  and  _251
REMARK  103  A    between atoms: _251  and  _252
REMARK  104  A    between atoms: _255  and  _257
REMARK  105  A    between atoms: _257  and  _258
REMARK  106  A    between atoms: _257  and  _260
REMARK  107  A    between atoms: _260  and  _261
REMARK  108  A    between atoms: _263  and  _265
REMARK  109  A    between atoms: _265  and  _266
REMARK  110  A    between atoms: _265  and  _268
REMARK  111  A    between atoms: _268  and  _269
REMARK  112  A    between atoms: _269  and  _270
REMARK  113  A    between atoms: _275  and  _277
REMARK  114  A    between atoms: _277  and  _278
REMARK  115  A    between atoms: _277  and  _280
REMARK  116  A    between atoms: _280  and  _281
REMARK  117  A    between atoms: _283  and  _285
REMARK  118  A    between atoms: _285  and  _286
REMARK  119  A    between atoms: _288  and  _290
REMARK  120  A    between atoms: _290  and  _291
REMARK  121  A    between atoms: _290  and  _293
REMARK  122  A    between atoms: _293  and  _294
REMARK  123  A    between atoms: _299  and  _301
REMARK  124  A    between atoms: _301  and  _302
REMARK  125  A    between atoms: _304  and  _306
REMARK  126  A    between atoms: _306  and  _307
REMARK  127  A    between atoms: _306  and  _309
REMARK  128  A    between atoms: _309  and  _310
REMARK  129  A    between atoms: _315  and  _316
REMARK  130  A    between atoms: _318  and  _320
REMARK  131  A    between atoms: _320  and  _321
REMARK  132  A    between atoms: _320  and  _323
REMARK  133  A    between atoms: _323  and  _324
REMARK  134  A    between atoms: _330  and  _332
REMARK  135  A    between atoms: _332  and  _333
REMARK  136  A    between atoms: _332  and  _335
REMARK  137  A    between atoms: _335  and  _336
REMARK  138  A    between atoms: _339  and  _341
REMARK  139  A    between atoms: _341  and  _342
REMARK  140  A    between atoms: _341  and  _344
REMARK  141  A    between atoms: _344  and  _345
REMARK  142  A    between atoms: _345  and  _346
REMARK  143  A    between atoms: _349  and  _351
REMARK  144  A    between atoms: _351  and  _352
REMARK  145  A    between atoms: _351  and  _354
REMARK  146  A    between atoms: _354  and  _355
REMARK  147  A    between atoms: _358  and  _360
REMARK  148  A    between atoms: _360  and  _361
REMARK  149  A    between atoms: _360  and  _363
REMARK  150  A    between atoms: _363  and  _364
REMARK  151  A    between atoms: _367  and  _369
REMARK  152  A    between atoms: _369  and  _370
REMARK  153  A    between atoms: _372  and  _374
REMARK  154  A    between atoms: _374  and  _375
REMARK  155  A    between atoms: _374  and  _377
REMARK  156  A    between atoms: _380  and  _382
REMARK  157  A    between atoms: _382  and  _383
REMARK  158  A    between atoms: _382  and  _385
REMARK  159  A    between atoms: _385  and  _386
REMARK  160  A    between atoms: _388  and  _390
REMARK  161  A    between atoms: _390  and  _391
REMARK  162  A    between atoms: _390  and  _393
REMARK  163  A    between atoms: _393  and  _394
REMARK  164  A    between atoms: _394  and  _395
REMARK  165  A    between atoms: _397  and  _399
REMARK  166  A    between atoms: _399  and  _400
REMARK  167  A    between atoms: _399  and  _402
REMARK  168  A    between atoms: _402  and  _403
REMARK  169  A    between atoms: _408  and  _409
REMARK  170  A    between atoms: _411  and  _413
REMARK  171  A    between atoms: _413  and  _414
REMARK  172  A    between atoms: _413  and  _416
REMARK  173  A    between atoms: _416  and  _417
REMARK  174  A    between atoms: _420  and  _422
REMARK  175  A    between atoms: _422  and  _423
REMARK  176  A    between atoms: _422  and  _425
REMARK  177  A    between atoms: _425  and  _426
REMARK  178  A    between atoms: _428  and  _430
REMARK  179  A    between atoms: _430  and  _431
REMARK  180  A    between atoms: _430  and  _433
REMARK  181  A    between atoms: _433  and  _434
REMARK  182  A    between atoms: _437  and  _439
REMARK  183  A    between atoms: _439  and  _440
REMARK  184  A    between atoms: _439  and  _442
REMARK  185  A    between atoms: _442  and  _443
REMARK  186  A    between atoms: _448  and  _449
REMARK  187  A    between atoms: _451  and  _453
REMARK  188  A    between atoms: _453  and  _454
REMARK  189  A    between atoms: _453  and  _456
REMARK  190  A    between atoms: _456  and  _457
REMARK  191  A    between atoms: _459  and  _461
REMARK  192  A    between atoms: _461  and  _462
REMARK  193  A    between atoms: _461  and  _464
REMARK  194  A    between atoms: _464  and  _465
REMARK  195  A    between atoms: _471  and  _473
REMARK  196  A    between atoms: _473  and  _474
REMARK  197  A    between atoms: _473  and  _476
REMARK  198  A    between atoms: _476  and  _477
REMARK  199  A    between atoms: _477  and  _478
REMARK  200  A    between atoms: _478  and  _479
REMARK  201  A    between atoms: _488  and  _490
REMARK  202  A    between atoms: _490  and  _491
REMARK  203  A    between atoms: _490  and  _493
REMARK  204  A    between atoms: _496  and  _498
REMARK  205  A    between atoms: _498  and  _499
REMARK  206  A    between atoms: _501  and  _503
REMARK  207  A    between atoms: _503  and  _504
REMARK  208  A    between atoms: _503  and  _506
REMARK  209  A    between atoms: _506  and  _507
REMARK  210  A    between atoms: _510  and  _512
REMARK  211  A    between atoms: _512  and  _513
REMARK  212  A    between atoms: _512  and  _515
REMARK  213  A    between atoms: _515  and  _516
REMARK  214  A    between atoms: _516  and  _517
REMARK  215  A    between atoms: _519  and  _521
REMARK  216  A    between atoms: _521  and  _522
REMARK  217  A    between atoms: _521  and  _524
REMARK  218  A    between atoms: _524  and  _525
REMARK  219  A    between atoms: _531  and  _533
REMARK  220  A    between atoms: _533  and  _534
REMARK  221  A    between atoms: _533  and  _536
REMARK  222  A    between atoms: _536  and  _537
REMARK  223  A    between atoms: _542  and  _544
REMARK  224  A    between atoms: _544  and  _545
REMARK  225  A    between atoms: _544  and  _547
REMARK  226  A    between atoms: _547  and  _548
REMARK  227  A    between atoms: _558  and  _560
REMARK  228  A    between atoms: _560  and  _561
REMARK  229  A    between atoms: _560  and  _563
REMARK  230  A    between atoms: _566  and  _568
REMARK  231  A    between atoms: _568  and  _569
REMARK  232  A    between atoms: _568  and  _571
REMARK  233  A    between atoms: _571  and  _572
REMARK  234  A    between atoms: _575  and  _577
REMARK  235  A    between atoms: _577  and  _578
REMARK  236  A    between atoms: _577  and  _580
REMARK  237  A    between atoms: _580  and  _581
REMARK  238  A    between atoms: _581  and  _582
REMARK  239  A    between atoms: _584  and  _586
REMARK  240  A    between atoms: _586  and  _587
REMARK  241  A    between atoms: _586  and  _589
REMARK  242  A    between atoms: _589  and  _590
REMARK  243  A    between atoms: _593  and  _595
REMARK  244  A    between atoms: _595  and  _596
REMARK  245  A    between atoms: _595  and  _598
REMARK  246  A    between atoms: _598  and  _599
REMARK  247  A    between atoms: _602  and  _604
REMARK  248  A    between atoms: _604  and  _605
REMARK  249  A    between atoms: _607  and  _609
REMARK  250  A    between atoms: _609  and  _610
REMARK  251  A    between atoms: _609  and  _612
REMARK  252  A    between atoms: _612  and  _613
REMARK  253  A    between atoms: _615  and  _617
REMARK  254  A    between atoms: _617  and  _618
REMARK  255  A    between atoms: _617  and  _620
REMARK  256  A    between atoms: _620  and  _621
REMARK  257  A    between atoms: _631  and  _633
REMARK  258  A    between atoms: _633  and  _634
REMARK  259  A    between atoms: _633  and  _636
REMARK  260  A    between atoms: _636  and  _637
REMARK  261  A    between atoms: _639  and  _641
REMARK  262  A    between atoms: _641  and  _642
REMARK  263  A    between atoms: _641  and  _644
REMARK  264  A    between atoms: _644  and  _645
REMARK  265  A    between atoms: _648  and  _650
REMARK  266  A    between atoms: _650  and  _651
REMARK  267  A    between atoms: _654  and  _656
REMARK  268  A    between atoms: _656  and  _657
REMARK  269  A    between atoms: _656  and  _659
REMARK  270  A    between atoms: _659  and  _660
REMARK  271  A    between atoms: _662  and  _664
REMARK  272  A    between atoms: _664  and  _665
REMARK  273  A    between atoms: _664  and  _667
REMARK  274  A    between atoms: _667  and  _668
REMARK  275  A    between atoms: _668  and  _669
REMARK  276  A    between atoms: _673  and  _674
REMARK  277  A    between atoms: _679  and  _681
REMARK  278  A    between atoms: _681  and  _682
REMARK  279  A    between atoms: _681  and  _684
REMARK  280  A    between atoms: _684  and  _685
REMARK  281  A    between atoms: _687  and  _689
REMARK  282  A    between atoms: _689  and  _690
REMARK  283  A    between atoms: _689  and  _692
REMARK  284  A    between atoms: _692  and  _693
REMARK  285  A    between atoms: _693  and  _694
REMARK  286  A    between atoms: _699  and  _701
REMARK  287  A    between atoms: _701  and  _702
REMARK  288  A    between atoms: _701  and  _704
REMARK  289  A    between atoms: _704  and  _705
REMARK  290  A    between atoms: _705  and  _706
REMARK  291  A    between atoms: _711  and  _713
REMARK  292  A    between atoms: _713  and  _714
REMARK  293  A    between atoms: _713  and  _716
REMARK  294  A    between atoms: _716  and  _717
REMARK  295  A    between atoms: _720  and  _722
REMARK  296  A    between atoms: _722  and  _723
REMARK  297  A    between atoms: _722  and  _725
REMARK  298  A    between atoms: _725  and  _726
REMARK  299  A    between atoms: _729  and  _731
REMARK  300  A    between atoms: _731  and  _732
REMARK  301  A    between atoms: _731  and  _734
REMARK  302  A    between atoms: _734  and  _735
REMARK  303  A    between atoms: _741  and  _743
REMARK  304  A    between atoms: _743  and  _744
REMARK  305  A    between atoms: _743  and  _746
REMARK  306  A    between atoms: _746  and  _747
REMARK  307  A    between atoms: _752  and  _753
REMARK  308  A    between atoms: _755  and  _757
REMARK  309  A    between atoms: _757  and  _758
REMARK  310  A    between atoms: _757  and  _760
REMARK  311  A    between atoms: _760  and  _761
REMARK  312  A    between atoms: _767  and  _769
REMARK  313  A    between atoms: _769  and  _770
REMARK  314  A    between atoms: _769  and  _772
REMARK  315  A    between atoms: _772  and  _773
REMARK  316  A    between atoms: _778  and  _780
REMARK  317  A    between atoms: _780  and  _781
REMARK  318  A    between atoms: _780  and  _783
REMARK  319  A    between atoms: _783  and  _784
REMARK  320  A    between atoms: _784  and  _785
REMARK                            x       y       z     vdW  Elec       q    Type
REMARK                         _______ _______ _______ _____ _____    ______ ____
ROOT
ATOM      1  O   HOH     1      -1.300  49.341  30.966  0.00  0.00    +0.000 OA
ENDROOT
TORSDOF 0
REMARK  Name = ../refined-set-2016/3drf/3drf_pocket.pdb
REMARK  320 active torsions:
REMARK  status: ('A' for Active; 'I' for Inactive)
REMARK    1  A    between atoms: _1  and  _3
REMARK    2  A    between atoms: _3  and  _4
REMARK    3  A    between atoms: _3  and  _6
REMARK    4  A    between atoms: _6  and  _7
REMARK    5  A    between atoms: _12  and  _13
REMARK    6  A    between atoms: _15  and  _17
REMARK    7  A    between atoms: _17  and  _18
REMARK    8  A    between atoms: _17  and  _20
REMARK    9  A    between atoms: _20  and  _21
REMARK   10  A    between atoms: _21  and  _22
REMARK   11  A    between atoms: _27  and  _29
REMARK   12  A    between atoms: _29  and  _30
REMARK   13  A    between atoms: _29  and  _32
REMARK   14  A    between atoms: _32  and  _33
REMARK   15  A    between atoms: _35  and  _37
REMARK   16  A    between atoms: _37  and  _38
REMARK   17  A    between atoms: _37  and  _40
REMARK   18  A    between atoms: _40  and  _41
REMARK   19  A    between atoms: _44  and  _46
REMARK   20  A    between atoms: _46  and  _47
REMARK   21  A    between atoms: _46  and  _49
REMARK   22  A    between atoms: _49  and  _50
REMARK   23  A    between atoms: _52  and  _54
REMARK   24  A    between atoms: _54  and  _55
REMARK   25  A    between atoms: _54  and  _57
REMARK   26  A    between atoms: _57  and  _58
REMARK   27  A    between atoms: _60  and  _62
REMARK   28  A    between atoms: _62  and  _63
REMARK   29  A    between atoms: _65  and  _67
REMARK   30  A    between atoms: _67  and  _68
REMARK   31  A    between atoms: _67  and  _70
REMARK   32  A    between atoms: _70  and  _71
REMARK   33  A    between atoms: _73  and  _75
REMARK   34  A    between atoms: _75  and  _76
REMARK   35  A    between atoms: _75  and  _78
REMARK   36  A    between atoms: _78  and  _79
REMARK   37  A    between atoms: _84  and  _86
REMARK   38  A    between atoms: _86  and  _87
REMARK   39  A    between atoms: _86  and  _89
REMARK   40  A    between atoms: _89  and  _90
REMARK   41  A    between atoms: _93  and  _95
REMARK   42  A    between atoms: _95  and  _96
REMARK   43  A    between atoms: _99  and  _101
REMARK   44  A    between atoms: _101  and  _102
REMARK   45  A    between atoms: _101  and  _104
REMARK   46  A    between atoms: _104  and  _105
REMARK   47  A    between atoms: _108  and  _110
REMARK   48  A    between atoms: _110  and  _111
REMARK   49  A    between atoms: _110  and  _113
REMARK   50  A    between atoms: _113  and  _114
REMARK   51  A    between atoms: _120  and  _122
REMARK   52  A    between atoms: _122  and  _123
REMARK   53  A    between atoms: _126  and  _128
REMARK   54  A    between atoms: _128  and  _129
REMARK   55  A    between atoms: _128  and  _131
REMARK   56  A    between atoms: _131  and  _132
REMARK   57  A    between atoms: _135  and  _137
REMARK   58  A    between atoms: _137  and  _138
REMARK   59  A    between atoms: _140  and  _142
REMARK   60  A    between atoms: _142  and  _143
REMARK   61  A    between atoms: _142  and  _145
REMARK   62  A    between atoms: _145  and  _146
REMARK   63  A    between atoms: _146  and  _147
REMARK   64  A    between atoms: _152  and  _154
REMARK   65  A    between atoms: _154  and  _155
REMARK   66  A    between atoms: _157  and  _159
REMARK   67  A    between atoms: _159  and  _160
REMARK   68  A    between atoms: _159  and  _162
REMARK   69  A    between atoms: _162  and  _163
REMARK   70  A    between atoms: _166  and  _168
REMARK   71  A    between atoms: _168  and  _169
REMARK   72  A    between atoms: _168  and  _171
REMARK   73  A    between atoms: _171  and  _172
REMARK   74  A    between atoms: _178  and  _180
REMARK   75  A    between atoms: _180  and  _181
REMARK   76  A    between atoms: _180  and  _183
REMARK   77  A    between atoms: _183  and  _184
REMARK   78  A    between atoms: _187  and  _189
REMARK   79  A    between atoms: _189  and  _190
REMARK   80  A    between atoms: _189  and  _192
REMARK   81  A    between atoms: _192  and  _193
REMARK   82  A    between atoms: _199  and  _201
REMARK   83  A    between atoms: _201  and  _202
REMARK   84  A    between atoms: _201  and  _204
REMARK   85  A    between atoms: _204  and  _205
REMARK   86  A    between atoms: _211  and  _213
REMARK   87  A    between atoms: _213  and  _214
REMARK   88  A    between atoms: _213  and  _216
REMARK   89  A    between atoms: _216  and  _217
REMARK   90  A    between atoms: _220  and  _222
REMARK   91  A    between atoms: _222  and  _223
REMARK   92  A    between atoms: _222  and  _225
REMARK   93  A    between atoms: _225  and  _226
REMARK   94  A    between atoms: _229  and  _231
REMARK   95  A    between atoms: _231  and  _232
REMARK   96  A    between atoms: _231  and  _234
REMARK   97  A    between atoms: _234  and  _235
REMARK   98  A    between atoms: _235  and  _236
REMARK   99  A    between atoms: _236  and  _237
REMARK  100  A    between atoms: _246  and  _248
REMARK  101  A    between atoms: _248  and  _249
REMARK  102  A    between atoms: _248  and  _251
REMARK  103  A    between atoms: _251  and  _252
REMARK  104  A    between atoms: _255  and  _257
REMARK  105  A    between atoms: _257  and  _258
REMARK  106  A    between atoms: _257  and  _260
REMARK  107  A    between atoms: _260  and  _261
REMARK  108  A    between atoms: _263  and  _265
REMARK  109  A    between atoms: _265  and  _266
REMARK  110  A    between atoms: _265  and  _268
REMARK  111  A    between atoms: _268  and  _269
REMARK  112  A    between atoms: _269  and  _270
REMARK  113  A    between atoms: _275  and  _277
REMARK  114  A    between atoms: _277  and  _278
REMARK  115  A    between atoms: _277  and  _280
REMARK  116  A    between atoms: _280  and  _281
REMARK  117  A    between atoms: _283  and  _285
REMARK  118  A    between atoms: _285  and  _286
REMARK  119  A    between atoms: _288  and  _290
REMARK  120  A    between atoms: _290  and  _291
REMARK  121  A    between atoms: _290  and  _293
REMARK  122  A    between atoms: _293  and  _294
REMARK  123  A    between atoms: _299  and  _301
REMARK  124  A    between atoms: _301  and  _302
REMARK  125  A    between atoms: _304  and  _306
REMARK  126  A    between atoms: _306  and  _307
REMARK  127  A    between atoms: _306  and  _309
REMARK  128  A    between atoms: _309  and  _310
REMARK  129  A    between atoms: _315  and  _316
REMARK  130  A    between atoms: _318  and  _320
REMARK  131  A    between atoms: _320  and  _321
REMARK  132  A    between atoms: _320  and  _323
REMARK  133  A    between atoms: _323  and  _324
REMARK  134  A    between atoms: _330  and  _332
REMARK  135  A    between atoms: _332  and  _333
REMARK  136  A    between atoms: _332  and  _335
REMARK  137  A    between atoms: _335  and  _336
REMARK  138  A    between atoms: _339  and  _341
REMARK  139  A    between atoms: _341  and  _342
REMARK  140  A    between atoms: _341  and  _344
REMARK  141  A    between atoms: _344  and  _345
REMARK  142  A    between atoms: _345  and  _346
REMARK  143  A    between atoms: _349  and  _351
REMARK  144  A    between atoms: _351  and  _352
REMARK  145  A    between atoms: _351  and  _354
REMARK  146  A    between atoms: _354  and  _355
REMARK  147  A    between atoms: _358  and  _360
REMARK  148  A    between atoms: _360  and  _361
REMARK  149  A    between atoms: _360  and  _363
REMARK  150  A    between atoms: _363  and  _364
REMARK  151  A    between atoms: _367  and  _369
REMARK  152  A    between atoms: _369  and  _370
REMARK  153  A    between atoms: _372  and  _374
REMARK  154  A    between atoms: _374  and  _375
REMARK  155  A    between atoms: _374  and  _377
REMARK  156  A    between atoms: _380  and  _382
REMARK  157  A    between atoms: _382  and  _383
REMARK  158  A    between atoms: _382  and  _385
REMARK  159  A    between atoms: _385  and  _386
REMARK  160  A    between atoms: _388  and  _390
REMARK  161  A    between atoms: _390  and  _391
REMARK  162  A    between atoms: _390  and  _393
REMARK  163  A    between atoms: _393  and  _394
REMARK  164  A    between atoms: _394  and  _395
REMARK  165  A    between atoms: _397  and  _399
REMARK  166  A    between atoms: _399  and  _400
REMARK  167  A    between atoms: _399  and  _402
REMARK  168  A    between atoms: _402  and  _403
REMARK  169  A    between atoms: _408  and  _409
REMARK  170  A    between atoms: _411  and  _413
REMARK  171  A    between atoms: _413  and  _414
REMARK  172  A    between atoms: _413  and  _416
REMARK  173  A    between atoms: _416  and  _417
REMARK  174  A    between atoms: _420  and  _422
REMARK  175  A    between atoms: _422  and  _423
REMARK  176  A    between atoms: _422  and  _425
REMARK  177  A    between atoms: _425  and  _426
REMARK  178  A    between atoms: _428  and  _430
REMARK  179  A    between atoms: _430  and  _431
REMARK  180  A    between atoms: _430  and  _433
REMARK  181  A    between atoms: _433  and  _434
REMARK  182  A    between atoms: _437  and  _439
REMARK  183  A    between atoms: _439  and  _440
REMARK  184  A    between atoms: _439  and  _442
REMARK  185  A    between atoms: _442  and  _443
REMARK  186  A    between atoms: _448  and  _449
REMARK  187  A    between atoms: _451  and  _453
REMARK  188  A    between atoms: _453  and  _454
REMARK  189  A    between atoms: _453  and  _456
REMARK  190  A    between atoms: _456  and  _457
REMARK  191  A    between atoms: _459  and  _461
REMARK  192  A    between atoms: _461  and  _462
REMARK  193  A    between atoms: _461  and  _464
REMARK  194  A    between atoms: _464  and  _465
REMARK  195  A    between atoms: _471  and  _473
REMARK  196  A    between atoms: _473  and  _474
REMARK  197  A    between atoms: _473  and  _476
REMARK  198  A    between atoms: _476  and  _477
REMARK  199  A    between atoms: _477  and  _478
REMARK  200  A    between atoms: _478  and  _479
REMARK  201  A    between atoms: _488  and  _490
REMARK  202  A    between atoms: _490  and  _491
REMARK  203  A    between atoms: _490  and  _493
REMARK  204  A    between atoms: _496  and  _498
REMARK  205  A    between atoms: _498  and  _499
REMARK  206  A    between atoms: _501  and  _503
REMARK  207  A    between atoms: _503  and  _504
REMARK  208  A    between atoms: _503  and  _506
REMARK  209  A    between atoms: _506  and  _507
REMARK  210  A    between atoms: _510  and  _512
REMARK  211  A    between atoms: _512  and  _513
REMARK  212  A    between atoms: _512  and  _515
REMARK  213  A    between atoms: _515  and  _516
REMARK  214  A    between atoms: _516  and  _517
REMARK  215  A    between atoms: _519  and  _521
REMARK  216  A    between atoms: _521  and  _522
REMARK  217  A    between atoms: _521  and  _524
REMARK  218  A    between atoms: _524  and  _525
REMARK  219  A    between atoms: _531  and  _533
REMARK  220  A    between atoms: _533  and  _534
REMARK  221  A    between atoms: _533  and  _536
REMARK  222  A    between atoms: _536  and  _537
REMARK  223  A    between atoms: _542  and  _544
REMARK  224  A    between atoms: _544  and  _545
REMARK  225  A    between atoms: _544  and  _547
REMARK  226  A    between atoms: _547  and  _548
REMARK  227  A    between atoms: _558  and  _560
REMARK  228  A    between atoms: _560  and  _561
REMARK  229  A    between atoms: _560  and  _563
REMARK  230  A    between atoms: _566  and  _568
REMARK  231  A    between atoms: _568  and  _569
REMARK  232  A    between atoms: _568  and  _571
REMARK  233  A    between atoms: _571  and  _572
REMARK  234  A    between atoms: _575  and  _577
REMARK  235  A    between atoms: _577  and  _578
REMARK  236  A    between atoms: _577  and  _580
REMARK  237  A    between atoms: _580  and  _581
REMARK  238  A    between atoms: _581  and  _582
REMARK  239  A    between atoms: _584  and  _586
REMARK  240  A    between atoms: _586  and  _587
REMARK  241  A    between atoms: _586  and  _589
REMARK  242  A    between atoms: _589  and  _590
REMARK  243  A    between atoms: _593  and  _595
REMARK  244  A    between atoms: _595  and  _596
REMARK  245  A    between atoms: _595  and  _598
REMARK  246  A    between atoms: _598  and  _599
REMARK  247  A    between atoms: _602  and  _604
REMARK  248  A    between atoms: _604  and  _605
REMARK  249  A    between atoms: _607  and  _609
REMARK  250  A    between atoms: _609  and  _610
REMARK  251  A    between atoms: _609  and  _612
REMARK  252  A    between atoms: _612  and  _613
REMARK  253  A    between atoms: _615  and  _617
REMARK  254  A    between atoms: _617  and  _618
REMARK  255  A    between atoms: _617  and  _620
REMARK  256  A    between atoms: _620  and  _621
REMARK  257  A    between atoms: _631  and  _633
REMARK  258  A    between atoms: _633  and  _634
REMARK  259  A    between atoms: _633  and  _636
REMARK  260  A    between atoms: _636  and  _637
REMARK  261  A    between atoms: _639  and  _641
REMARK  262  A    between atoms: _641  and  _642
REMARK  263  A    between atoms: _641  and  _644
REMARK  264  A    between atoms: _644  and  _645
REMARK  265  A    between atoms: _648  and  _650
REMARK  266  A    between atoms: _650  and  _651
REMARK  267  A    between atoms: _654  and  _656
REMARK  268  A    between atoms: _656  and  _657
REMARK  269  A    between atoms: _656  and  _659
REMARK  270  A    between atoms: _659  and  _660
REMARK  271  A    between atoms: _662  and  _664
REMARK  272  A    between atoms: _664  and  _665
REMARK  273  A    between atoms: _664  and  _667
REMARK  274  A    between atoms: _667  and  _668
REMARK  275  A    between atoms: _668  and  _669
REMARK  276  A    between atoms: _673  and  _674
REMARK  277  A    between atoms: _679  and  _681
REMARK  278  A    between atoms: _681  and  _682
REMARK  279  A    between atoms: _681  and  _684
REMARK  280  A    between atoms: _684  and  _685
REMARK  281  A    between atoms: _687  and  _689
REMARK  282  A    between atoms: _689  and  _690
REMARK  283  A    between atoms: _689  and  _692
REMARK  284  A    between atoms: _692  and  _693
REMARK  285  A    between atoms: _693  and  _694
REMARK  286  A    between atoms: _699  and  _701
REMARK  287  A    between atoms: _701  and  _702
REMARK  288  A    between atoms: _701  and  _704
REMARK  289  A    between atoms: _704  and  _705
REMARK  290  A    between atoms: _705  and  _706
REMARK  291  A    between atoms: _711  and  _713
REMARK  292  A    between atoms: _713  and  _714
REMARK  293  A    between atoms: _713  and  _716
REMARK  294  A    between atoms: _716  and  _717
REMARK  295  A    between atoms: _720  and  _722
REMARK  296  A    between atoms: _722  and  _723
REMARK  297  A    between atoms: _722  and  _725
REMARK  298  A    between atoms: _725  and  _726
REMARK  299  A    between atoms: _729  and  _731
REMARK  300  A    between atoms: _731  and  _732
REMARK  301  A    between atoms: _731  and  _734
REMARK  302  A    between atoms: _734  and  _735
REMARK  303  A    between atoms: _741  and  _743
REMARK  304  A    between atoms: _743  and  _744
REMARK  305  A    between atoms: _743  and  _746
REMARK  306  A    between atoms: _746  and  _747
REMARK  307  A    between atoms: _752  and  _753
REMARK  308  A    between atoms: _755  and  _757
REMARK  309  A    between atoms: _757  and  _758
REMARK  310  A    between atoms: _757  and  _760
REMARK  311  A    between atoms: _760  and  _761
REMARK  312  A    between atoms: _767  and  _769
REMARK  313  A    between atoms: _769  and  _770
REMARK  314  A    between atoms: _769  and  _772
REMARK  315  A    between atoms: _772  and  _773
REMARK  316  A    between atoms: _778  and  _780
REMARK  317  A    between atoms: _780  and  _781
REMARK  318  A    between atoms: _780  and  _783
REMARK  319  A    between atoms: _783  and  _784
REMARK  320  A    between atoms: _784  and  _785
REMARK                            x       y       z     vdW  Elec       q    Type
REMARK                         _______ _______ _______ _____ _____    ______ ____
ROOT
ATOM      1  O   HOH     1      18.012  49.658  27.504  0.00  0.00    +0.000 OA
ENDROOT
TORSDOF 0
REMARK  Name = ../refined-set-2016/3drf/3drf_pocket.pdb
REMARK  320 active torsions:
REMARK  status: ('A' for Active; 'I' for Inactive)
REMARK    1  A    between atoms: _1  and  _3
REMARK    2  A    between atoms: _3  and  _4
REMARK    3  A    between atoms: _3  and  _6
REMARK    4  A    between atoms: _6  and  _7
REMARK    5  A    between atoms: _12  and  _13
REMARK    6  A    between atoms: _15  and  _17
REMARK    7  A    between atoms: _17  and  _18
REMARK    8  A    between atoms: _17  and  _20
REMARK    9  A    between atoms: _20  and  _21
REMARK   10  A    between atoms: _21  and  _22
REMARK   11  A    between atoms: _27  and  _29
REMARK   12  A    between atoms: _29  and  _30
REMARK   13  A    between atoms: _29  and  _32
REMARK   14  A    between atoms: _32  and  _33
REMARK   15  A    between atoms: _35  and  _37
REMARK   16  A    between atoms: _37  and  _38
REMARK   17  A    between atoms: _37  and  _40
REMARK   18  A    between atoms: _40  and  _41
REMARK   19  A    between atoms: _44  and  _46
REMARK   20  A    between atoms: _46  and  _47
REMARK   21  A    between atoms: _46  and  _49
REMARK   22  A    between atoms: _49  and  _50
REMARK   23  A    between atoms: _52  and  _54
REMARK   24  A    between atoms: _54  and  _55
REMARK   25  A    between atoms: _54  and  _57
REMARK   26  A    between atoms: _57  and  _58
REMARK   27  A    between atoms: _60  and  _62
REMARK   28  A    between atoms: _62  and  _63
REMARK   29  A    between atoms: _65  and  _67
REMARK   30  A    between atoms: _67  and  _68
REMARK   31  A    between atoms: _67  and  _70
REMARK   32  A    between atoms: _70  and  _71
REMARK   33  A    between atoms: _73  and  _75
REMARK   34  A    between atoms: _75  and  _76
REMARK   35  A    between atoms: _75  and  _78
REMARK   36  A    between atoms: _78  and  _79
REMARK   37  A    between atoms: _84  and  _86
REMARK   38  A    between atoms: _86  and  _87
REMARK   39  A    between atoms: _86  and  _89
REMARK   40  A    between atoms: _89  and  _90
REMARK   41  A    between atoms: _93  and  _95
REMARK   42  A    between atoms: _95  and  _96
REMARK   43  A    between atoms: _99  and  _101
REMARK   44  A    between atoms: _101  and  _102
REMARK   45  A    between atoms: _101  and  _104
REMARK   46  A    between atoms: _104  and  _105
REMARK   47  A    between atoms: _108  and  _110
REMARK   48  A    between atoms: _110  and  _111
REMARK   49  A    between atoms: _110  and  _113
REMARK   50  A    between atoms: _113  and  _114
REMARK   51  A    between atoms: _120  and  _122
REMARK   52  A    between atoms: _122  and  _123
REMARK   53  A    between atoms: _126  and  _128
REMARK   54  A    between atoms: _128  and  _129
REMARK   55  A    between atoms: _128  and  _131
REMARK   56  A    between atoms: _131  and  _132
REMARK   57  A    between atoms: _135  and  _137
REMARK   58  A    between atoms: _137  and  _138
REMARK   59  A    between atoms: _140  and  _142
REMARK   60  A    between atoms: _142  and  _143
REMARK   61  A    between atoms: _142  and  _145
REMARK   62  A    between atoms: _145  and  _146
REMARK   63  A    between atoms: _146  and  _147
REMARK   64  A    between atoms: _152  and  _154
REMARK   65  A    between atoms: _154  and  _155
REMARK   66  A    between atoms: _157  and  _159
REMARK   67  A    between atoms: _159  and  _160
REMARK   68  A    between atoms: _159  and  _162
REMARK   69  A    between atoms: _162  and  _163
REMARK   70  A    between atoms: _166  and  _168
REMARK   71  A    between atoms: _168  and  _169
REMARK   72  A    between atoms: _168  and  _171
REMARK   73  A    between atoms: _171  and  _172
REMARK   74  A    between atoms: _178  and  _180
REMARK   75  A    between atoms: _180  and  _181
REMARK   76  A    between atoms: _180  and  _183
REMARK   77  A    between atoms: _183  and  _184
REMARK   78  A    between atoms: _187  and  _189
REMARK   79  A    between atoms: _189  and  _190
REMARK   80  A    between atoms: _189  and  _192
REMARK   81  A    between atoms: _192  and  _193
REMARK   82  A    between atoms: _199  and  _201
REMARK   83  A    between atoms: _201  and  _202
REMARK   84  A    between atoms: _201  and  _204
REMARK   85  A    between atoms: _204  and  _205
REMARK   86  A    between atoms: _211  and  _213
REMARK   87  A    between atoms: _213  and  _214
REMARK   88  A    between atoms: _213  and  _216
REMARK   89  A    between atoms: _216  and  _217
REMARK   90  A    between atoms: _220  and  _222
REMARK   91  A    between atoms: _222  and  _223
REMARK   92  A    between atoms: _222  and  _225
REMARK   93  A    between atoms: _225  and  _226
REMARK   94  A    between atoms: _229  and  _231
REMARK   95  A    between atoms: _231  and  _232
REMARK   96  A    between atoms: _231  and  _234
REMARK   97  A    between atoms: _234  and  _235
REMARK   98  A    between atoms: _235  and  _236
REMARK   99  A    between atoms: _236  and  _237
REMARK  100  A    between atoms: _246  and  _248
REMARK  101  A    between atoms: _248  and  _249
REMARK  102  A    between atoms: _248  and  _251
REMARK  103  A    between atoms: _251  and  _252
REMARK  104  A    between atoms: _255  and  _257
REMARK  105  A    between atoms: _257  and  _258
REMARK  106  A    between atoms: _257  and  _260
REMARK  107  A    between atoms: _260  and  _261
REMARK  108  A    between atoms: _263  and  _265
REMARK  109  A    between atoms: _265  and  _266
REMARK  110  A    between atoms: _265  and  _268
REMARK  111  A    between atoms: _268  and  _269
REMARK  112  A    between atoms: _269  and  _270
REMARK  113  A    between atoms: _275  and  _277
REMARK  114  A    between atoms: _277  and  _278
REMARK  115  A    between atoms: _277  and  _280
REMARK  116  A    between atoms: _280  and  _281
REMARK  117  A    between atoms: _283  and  _285
REMARK  118  A    between atoms: _285  and  _286
REMARK  119  A    between atoms: _288  and  _290
REMARK  120  A    between atoms: _290  and  _291
REMARK  121  A    between atoms: _290  and  _293
REMARK  122  A    between atoms: _293  and  _294
REMARK  123  A    between atoms: _299  and  _301
REMARK  124  A    between atoms: _301  and  _302
REMARK  125  A    between atoms: _304  and  _306
REMARK  126  A    between atoms: _306  and  _307
REMARK  127  A    between atoms: _306  and  _309
REMARK  128  A    between atoms: _309  and  _310
REMARK  129  A    between atoms: _315  and  _316
REMARK  130  A    between atoms: _318  and  _320
REMARK  131  A    between atoms: _320  and  _321
REMARK  132  A    between atoms: _320  and  _323
REMARK  133  A    between atoms: _323  and  _324
REMARK  134  A    between atoms: _330  and  _332
REMARK  135  A    between atoms: _332  and  _333
REMARK  136  A    between atoms: _332  and  _335
REMARK  137  A    between atoms: _335  and  _336
REMARK  138  A    between atoms: _339  and  _341
REMARK  139  A    between atoms: _341  and  _342
REMARK  140  A    between atoms: _341  and  _344
REMARK  141  A    between atoms: _344  and  _345
REMARK  142  A    between atoms: _345  and  _346
REMARK  143  A    between atoms: _349  and  _351
REMARK  144  A    between atoms: _351  and  _352
REMARK  145  A    between atoms: _351  and  _354
REMARK  146  A    between atoms: _354  and  _355
REMARK  147  A    between atoms: _358  and  _360
REMARK  148  A    between atoms: _360  and  _361
REMARK  149  A    between atoms: _360  and  _363
REMARK  150  A    between atoms: _363  and  _364
REMARK  151  A    between atoms: _367  and  _369
REMARK  152  A    between atoms: _369  and  _370
REMARK  153  A    between atoms: _372  and  _374
REMARK  154  A    between atoms: _374  and  _375
REMARK  155  A    between atoms: _374  and  _377
REMARK  156  A    between atoms: _380  and  _382
REMARK  157  A    between atoms: _382  and  _383
REMARK  158  A    between atoms: _382  and  _385
REMARK  159  A    between atoms: _385  and  _386
REMARK  160  A    between atoms: _388  and  _390
REMARK  161  A    between atoms: _390  and  _391
REMARK  162  A    between atoms: _390  and  _393
REMARK  163  A    between atoms: _393  and  _394
REMARK  164  A    between atoms: _394  and  _395
REMARK  165  A    between atoms: _397  and  _399
REMARK  166  A    between atoms: _399  and  _400
REMARK  167  A    between atoms: _399  and  _402
REMARK  168  A    between atoms: _402  and  _403
REMARK  169  A    between atoms: _408  and  _409
REMARK  170  A    between atoms: _411  and  _413
REMARK  171  A    between atoms: _413  and  _414
REMARK  172  A    between atoms: _413  and  _416
REMARK  173  A    between atoms: _416  and  _417
REMARK  174  A    between atoms: _420  and  _422
REMARK  175  A    between atoms: _422  and  _423
REMARK  176  A    between atoms: _422  and  _425
REMARK  177  A    between atoms: _425  and  _426
REMARK  178  A    between atoms: _428  and  _430
REMARK  179  A    between atoms: _430  and  _431
REMARK  180  A    between atoms: _430  and  _433
REMARK  181  A    between atoms: _433  and  _434
REMARK  182  A    between atoms: _437  and  _439
REMARK  183  A    between atoms: _439  and  _440
REMARK  184  A    between atoms: _439  and  _442
REMARK  185  A    between atoms: _442  and  _443
REMARK  186  A    between atoms: _448  and  _449
REMARK  187  A    between atoms: _451  and  _453
REMARK  188  A    between atoms: _453  and  _454
REMARK  189  A    between atoms: _453  and  _456
REMARK  190  A    between atoms: _456  and  _457
REMARK  191  A    between atoms: _459  and  _461
REMARK  192  A    between atoms: _461  and  _462
REMARK  193  A    between atoms: _461  and  _464
REMARK  194  A    between atoms: _464  and  _465
REMARK  195  A    between atoms: _471  and  _473
REMARK  196  A    between atoms: _473  and  _474
REMARK  197  A    between atoms: _473  and  _476
REMARK  198  A    between atoms: _476  and  _477
REMARK  199  A    between atoms: _477  and  _478
REMARK  200  A    between atoms: _478  and  _479
REMARK  201  A    between atoms: _488  and  _490
REMARK  202  A    between atoms: _490  and  _491
REMARK  203  A    between atoms: _490  and  _493
REMARK  204  A    between atoms: _496  and  _498
REMARK  205  A    between atoms: _498  and  _499
REMARK  206  A    between atoms: _501  and  _503
REMARK  207  A    between atoms: _503  and  _504
REMARK  208  A    between atoms: _503  and  _506
REMARK  209  A    between atoms: _506  and  _507
REMARK  210  A    between atoms: _510  and  _512
REMARK  211  A    between atoms: _512  and  _513
REMARK  212  A    between atoms: _512  and  _515
REMARK  213  A    between atoms: _515  and  _516
REMARK  214  A    between atoms: _516  and  _517
REMARK  215  A    between atoms: _519  and  _521
REMARK  216  A    between atoms: _521  and  _522
REMARK  217  A    between atoms: _521  and  _524
REMARK  218  A    between atoms: _524  and  _525
REMARK  219  A    between atoms: _531  and  _533
REMARK  220  A    between atoms: _533  and  _534
REMARK  221  A    between atoms: _533  and  _536
REMARK  222  A    between atoms: _536  and  _537
REMARK  223  A    between atoms: _542  and  _544
REMARK  224  A    between atoms: _544  and  _545
REMARK  225  A    between atoms: _544  and  _547
REMARK  226  A    between atoms: _547  and  _548
REMARK  227  A    between atoms: _558  and  _560
REMARK  228  A    between atoms: _560  and  _561
REMARK  229  A    between atoms: _560  and  _563
REMARK  230  A    between atoms: _566  and  _568
REMARK  231  A    between atoms: _568  and  _569
REMARK  232  A    between atoms: _568  and  _571
REMARK  233  A    between atoms: _571  and  _572
REMARK  234  A    between atoms: _575  and  _577
REMARK  235  A    between atoms: _577  and  _578
REMARK  236  A    between atoms: _577  and  _580
REMARK  237  A    between atoms: _580  and  _581
REMARK  238  A    between atoms: _581  and  _582
REMARK  239  A    between atoms: _584  and  _586
REMARK  240  A    between atoms: _586  and  _587
REMARK  241  A    between atoms: _586  and  _589
REMARK  242  A    between atoms: _589  and  _590
REMARK  243  A    between atoms: _593  and  _595
REMARK  244  A    between atoms: _595  and  _596
REMARK  245  A    between atoms: _595  and  _598
REMARK  246  A    between atoms: _598  and  _599
REMARK  247  A    between atoms: _602  and  _604
REMARK  248  A    between atoms: _604  and  _605
REMARK  249  A    between atoms: _607  and  _609
REMARK  250  A    between atoms: _609  and  _610
REMARK  251  A    between atoms: _609  and  _612
REMARK  252  A    between atoms: _612  and  _613
REMARK  253  A    between atoms: _615  and  _617
REMARK  254  A    between atoms: _617  and  _618
REMARK  255  A    between atoms: _617  and  _620
REMARK  256  A    between atoms: _620  and  _621
REMARK  257  A    between atoms: _631  and  _633
REMARK  258  A    between atoms: _633  and  _634
REMARK  259  A    between atoms: _633  and  _636
REMARK  260  A    between atoms: _636  and  _637
REMARK  261  A    between atoms: _639  and  _641
REMARK  262  A    between atoms: _641  and  _642
REMARK  263  A    between atoms: _641  and  _644
REMARK  264  A    between atoms: _644  and  _645
REMARK  265  A    between atoms: _648  and  _650
REMARK  266  A    between atoms: _650  and  _651
REMARK  267  A    between atoms: _654  and  _656
REMARK  268  A    between atoms: _656  and  _657
REMARK  269  A    between atoms: _656  and  _659
REMARK  270  A    between atoms: _659  and  _660
REMARK  271  A    between atoms: _662  and  _664
REMARK  272  A    between atoms: _664  and  _665
REMARK  273  A    between atoms: _664  and  _667
REMARK  274  A    between atoms: _667  and  _668
REMARK  275  A    between atoms: _668  and  _669
REMARK  276  A    between atoms: _673  and  _674
REMARK  277  A    between atoms: _679  and  _681
REMARK  278  A    between atoms: _681  and  _682
REMARK  279  A    between atoms: _681  and  _684
REMARK  280  A    between atoms: _684  and  _685
REMARK  281  A    between atoms: _687  and  _689
REMARK  282  A    between atoms: _689  and  _690
REMARK  283  A    between atoms: _689  and  _692
REMARK  284  A    between atoms: _692  and  _693
REMARK  285  A    between atoms: _693  and  _694
REMARK  286  A    between atoms: _699  and  _701
REMARK  287  A    between atoms: _701  and  _702
REMARK  288  A    between atoms: _701  and  _704
REMARK  289  A    between atoms: _704  and  _705
REMARK  290  A    between atoms: _705  and  _706
REMARK  291  A    between atoms: _711  and  _713
REMARK  292  A    between atoms: _713  and  _714
REMARK  293  A    between atoms: _713  and  _716
REMARK  294  A    between atoms: _716  and  _717
REMARK  295  A    between atoms: _720  and  _722
REMARK  296  A    between atoms: _722  and  _723
REMARK  297  A    between atoms: _722  and  _725
REMARK  298  A    between atoms: _725  and  _726
REMARK  299  A    between atoms: _729  and  _731
REMARK  300  A    between atoms: _731  and  _732
REMARK  301  A    between atoms: _731  and  _734
REMARK  302  A    between atoms: _734  and  _735
REMARK  303  A    between atoms: _741  and  _743
REMARK  304  A    between atoms: _743  and  _744
REMARK  305  A    between atoms: _743  and  _746
REMARK  306  A    between atoms: _746  and  _747
REMARK  307  A    between atoms: _752  and  _753
REMARK  308  A    between atoms: _755  and  _757
REMARK  309  A    between atoms: _757  and  _758
REMARK  310  A    between atoms: _757  and  _760
REMARK  311  A    between atoms: _760  and  _761
REMARK  312  A    between atoms: _767  and  _769
REMARK  313  A    between atoms: _769  and  _770
REMARK  314  A    between atoms: _769  and  _772
REMARK  315  A    between atoms: _772  and  _773
REMARK  316  A    between atoms: _778  and  _780
REMARK  317  A    between atoms: _780  and  _781
REMARK  318  A    between atoms: _780  and  _783
REMARK  319  A    between atoms: _783  and  _784
REMARK  320  A    between atoms: _784  and  _785
REMARK                            x       y       z     vdW  Elec       q    Type
REMARK                         _______ _______ _______ _____ _____    ______ ____
ROOT
ATOM      1  O   HOH     1      21.146  49.285  25.764  0.00  0.00    +0.000 OA
ENDROOT
TORSDOF 0
REMARK  Name = ../refined-set-2016/3drf/3drf_pocket.pdb
REMARK  320 active torsions:
REMARK  status: ('A' for Active; 'I' for Inactive)
REMARK    1  A    between atoms: _1  and  _3
REMARK    2  A    between atoms: _3  and  _4
REMARK    3  A    between atoms: _3  and  _6
REMARK    4  A    between atoms: _6  and  _7
REMARK    5  A    between atoms: _12  and  _13
REMARK    6  A    between atoms: _15  and  _17
REMARK    7  A    between atoms: _17  and  _18
REMARK    8  A    between atoms: _17  and  _20
REMARK    9  A    between atoms: _20  and  _21
REMARK   10  A    between atoms: _21  and  _22
REMARK   11  A    between atoms: _27  and  _29
REMARK   12  A    between atoms: _29  and  _30
REMARK   13  A    between atoms: _29  and  _32
REMARK   14  A    between atoms: _32  and  _33
REMARK   15  A    between atoms: _35  and  _37
REMARK   16  A    between atoms: _37  and  _38
REMARK   17  A    between atoms: _37  and  _40
REMARK   18  A    between atoms: _40  and  _41
REMARK   19  A    between atoms: _44  and  _46
REMARK   20  A    between atoms: _46  and  _47
REMARK   21  A    between atoms: _46  and  _49
REMARK   22  A    between atoms: _49  and  _50
REMARK   23  A    between atoms: _52  and  _54
REMARK   24  A    between atoms: _54  and  _55
REMARK   25  A    between atoms: _54  and  _57
REMARK   26  A    between atoms: _57  and  _58
REMARK   27  A    between atoms: _60  and  _62
REMARK   28  A    between atoms: _62  and  _63
REMARK   29  A    between atoms: _65  and  _67
REMARK   30  A    between atoms: _67  and  _68
REMARK   31  A    between atoms: _67  and  _70
REMARK   32  A    between atoms: _70  and  _71
REMARK   33  A    between atoms: _73  and  _75
REMARK   34  A    between atoms: _75  and  _76
REMARK   35  A    between atoms: _75  and  _78
REMARK   36  A    between atoms: _78  and  _79
REMARK   37  A    between atoms: _84  and  _86
REMARK   38  A    between atoms: _86  and  _87
REMARK   39  A    between atoms: _86  and  _89
REMARK   40  A    between atoms: _89  and  _90
REMARK   41  A    between atoms: _93  and  _95
REMARK   42  A    between atoms: _95  and  _96
REMARK   43  A    between atoms: _99  and  _101
REMARK   44  A    between atoms: _101  and  _102
REMARK   45  A    between atoms: _101  and  _104
REMARK   46  A    between atoms: _104  and  _105
REMARK   47  A    between atoms: _108  and  _110
REMARK   48  A    between atoms: _110  and  _111
REMARK   49  A    between atoms: _110  and  _113
REMARK   50  A    between atoms: _113  and  _114
REMARK   51  A    between atoms: _120  and  _122
REMARK   52  A    between atoms: _122  and  _123
REMARK   53  A    between atoms: _126  and  _128
REMARK   54  A    between atoms: _128  and  _129
REMARK   55  A    between atoms: _128  and  _131
REMARK   56  A    between atoms: _131  and  _132
REMARK   57  A    between atoms: _135  and  _137
REMARK   58  A    between atoms: _137  and  _138
REMARK   59  A    between atoms: _140  and  _142
REMARK   60  A    between atoms: _142  and  _143
REMARK   61  A    between atoms: _142  and  _145
REMARK   62  A    between atoms: _145  and  _146
REMARK   63  A    between atoms: _146  and  _147
REMARK   64  A    between atoms: _152  and  _154
REMARK   65  A    between atoms: _154  and  _155
REMARK   66  A    between atoms: _157  and  _159
REMARK   67  A    between atoms: _159  and  _160
REMARK   68  A    between atoms: _159  and  _162
REMARK   69  A    between atoms: _162  and  _163
REMARK   70  A    between atoms: _166  and  _168
REMARK   71  A    between atoms: _168  and  _169
REMARK   72  A    between atoms: _168  and  _171
REMARK   73  A    between atoms: _171  and  _172
REMARK   74  A    between atoms: _178  and  _180
REMARK   75  A    between atoms: _180  and  _181
REMARK   76  A    between atoms: _180  and  _183
REMARK   77  A    between atoms: _183  and  _184
REMARK   78  A    between atoms: _187  and  _189
REMARK   79  A    between atoms: _189  and  _190
REMARK   80  A    between atoms: _189  and  _192
REMARK   81  A    between atoms: _192  and  _193
REMARK   82  A    between atoms: _199  and  _201
REMARK   83  A    between atoms: _201  and  _202
REMARK   84  A    between atoms: _201  and  _204
REMARK   85  A    between atoms: _204  and  _205
REMARK   86  A    between atoms: _211  and  _213
REMARK   87  A    between atoms: _213  and  _214
REMARK   88  A    between atoms: _213  and  _216
REMARK   89  A    between atoms: _216  and  _217
REMARK   90  A    between atoms: _220  and  _222
REMARK   91  A    between atoms: _222  and  _223
REMARK   92  A    between atoms: _222  and  _225
REMARK   93  A    between atoms: _225  and  _226
REMARK   94  A    between atoms: _229  and  _231
REMARK   95  A    between atoms: _231  and  _232
REMARK   96  A    between atoms: _231  and  _234
REMARK   97  A    between atoms: _234  and  _235
REMARK   98  A    between atoms: _235  and  _236
REMARK   99  A    between atoms: _236  and  _237
REMARK  100  A    between atoms: _246  and  _248
REMARK  101  A    between atoms: _248  and  _249
REMARK  102  A    between atoms: _248  and  _251
REMARK  103  A    between atoms: _251  and  _252
REMARK  104  A    between atoms: _255  and  _257
REMARK  105  A    between atoms: _257  and  _258
REMARK  106  A    between atoms: _257  and  _260
REMARK  107  A    between atoms: _260  and  _261
REMARK  108  A    between atoms: _263  and  _265
REMARK  109  A    between atoms: _265  and  _266
REMARK  110  A    between atoms: _265  and  _268
REMARK  111  A    between atoms: _268  and  _269
REMARK  112  A    between atoms: _269  and  _270
REMARK  113  A    between atoms: _275  and  _277
REMARK  114  A    between atoms: _277  and  _278
REMARK  115  A    between atoms: _277  and  _280
REMARK  116  A    between atoms: _280  and  _281
REMARK  117  A    between atoms: _283  and  _285
REMARK  118  A    between atoms: _285  and  _286
REMARK  119  A    between atoms: _288  and  _290
REMARK  120  A    between atoms: _290  and  _291
REMARK  121  A    between atoms: _290  and  _293
REMARK  122  A    between atoms: _293  and  _294
REMARK  123  A    between atoms: _299  and  _301
REMARK  124  A    between atoms: _301  and  _302
REMARK  125  A    between atoms: _304  and  _306
REMARK  126  A    between atoms: _306  and  _307
REMARK  127  A    between atoms: _306  and  _309
REMARK  128  A    between atoms: _309  and  _310
REMARK  129  A    between atoms: _315  and  _316
REMARK  130  A    between atoms: _318  and  _320
REMARK  131  A    between atoms: _320  and  _321
REMARK  132  A    between atoms: _320  and  _323
REMARK  133  A    between atoms: _323  and  _324
REMARK  134  A    between atoms: _330  and  _332
REMARK  135  A    between atoms: _332  and  _333
REMARK  136  A    between atoms: _332  and  _335
REMARK  137  A    between atoms: _335  and  _336
REMARK  138  A    between atoms: _339  and  _341
REMARK  139  A    between atoms: _341  and  _342
REMARK  140  A    between atoms: _341  and  _344
REMARK  141  A    between atoms: _344  and  _345
REMARK  142  A    between atoms: _345  and  _346
REMARK  143  A    between atoms: _349  and  _351
REMARK  144  A    between atoms: _351  and  _352
REMARK  145  A    between atoms: _351  and  _354
REMARK  146  A    between atoms: _354  and  _355
REMARK  147  A    between atoms: _358  and  _360
REMARK  148  A    between atoms: _360  and  _361
REMARK  149  A    between atoms: _360  and  _363
REMARK  150  A    between atoms: _363  and  _364
REMARK  151  A    between atoms: _367  and  _369
REMARK  152  A    between atoms: _369  and  _370
REMARK  153  A    between atoms: _372  and  _374
REMARK  154  A    between atoms: _374  and  _375
REMARK  155  A    between atoms: _374  and  _377
REMARK  156  A    between atoms: _380  and  _382
REMARK  157  A    between atoms: _382  and  _383
REMARK  158  A    between atoms: _382  and  _385
REMARK  159  A    between atoms: _385  and  _386
REMARK  160  A    between atoms: _388  and  _390
REMARK  161  A    between atoms: _390  and  _391
REMARK  162  A    between atoms: _390  and  _393
REMARK  163  A    between atoms: _393  and  _394
REMARK  164  A    between atoms: _394  and  _395
REMARK  165  A    between atoms: _397  and  _399
REMARK  166  A    between atoms: _399  and  _400
REMARK  167  A    between atoms: _399  and  _402
REMARK  168  A    between atoms: _402  and  _403
REMARK  169  A    between atoms: _408  and  _409
REMARK  170  A    between atoms: _411  and  _413
REMARK  171  A    between atoms: _413  and  _414
REMARK  172  A    between atoms: _413  and  _416
REMARK  173  A    between atoms: _416  and  _417
REMARK  174  A    between atoms: _420  and  _422
REMARK  175  A    between atoms: _422  and  _423
REMARK  176  A    between atoms: _422  and  _425
REMARK  177  A    between atoms: _425  and  _426
REMARK  178  A    between atoms: _428  and  _430
REMARK  179  A    between atoms: _430  and  _431
REMARK  180  A    between atoms: _430  and  _433
REMARK  181  A    between atoms: _433  and  _434
REMARK  182  A    between atoms: _437  and  _439
REMARK  183  A    between atoms: _439  and  _440
REMARK  184  A    between atoms: _439  and  _442
REMARK  185  A    between atoms: _442  and  _443
REMARK  186  A    between atoms: _448  and  _449
REMARK  187  A    between atoms: _451  and  _453
REMARK  188  A    between atoms: _453  and  _454
REMARK  189  A    between atoms: _453  and  _456
REMARK  190  A    between atoms: _456  and  _457
REMARK  191  A    between atoms: _459  and  _461
REMARK  192  A    between atoms: _461  and  _462
REMARK  193  A    between atoms: _461  and  _464
REMARK  194  A    between atoms: _464  and  _465
REMARK  195  A    between atoms: _471  and  _473
REMARK  196  A    between atoms: _473  and  _474
REMARK  197  A    between atoms: _473  and  _476
REMARK  198  A    between atoms: _476  and  _477
REMARK  199  A    between atoms: _477  and  _478
REMARK  200  A    between atoms: _478  and  _479
REMARK  201  A    between atoms: _488  and  _490
REMARK  202  A    between atoms: _490  and  _491
REMARK  203  A    between atoms: _490  and  _493
REMARK  204  A    between atoms: _496  and  _498
REMARK  205  A    between atoms: _498  and  _499
REMARK  206  A    between atoms: _501  and  _503
REMARK  207  A    between atoms: _503  and  _504
REMARK  208  A    between atoms: _503  and  _506
REMARK  209  A    between atoms: _506  and  _507
REMARK  210  A    between atoms: _510  and  _512
REMARK  211  A    between atoms: _512  and  _513
REMARK  212  A    between atoms: _512  and  _515
REMARK  213  A    between atoms: _515  and  _516
REMARK  214  A    between atoms: _516  and  _517
REMARK  215  A    between atoms: _519  and  _521
REMARK  216  A    between atoms: _521  and  _522
REMARK  217  A    between atoms: _521  and  _524
REMARK  218  A    between atoms: _524  and  _525
REMARK  219  A    between atoms: _531  and  _533
REMARK  220  A    between atoms: _533  and  _534
REMARK  221  A    between atoms: _533  and  _536
REMARK  222  A    between atoms: _536  and  _537
REMARK  223  A    between atoms: _542  and  _544
REMARK  224  A    between atoms: _544  and  _545
REMARK  225  A    between atoms: _544  and  _547
REMARK  226  A    between atoms: _547  and  _548
REMARK  227  A    between atoms: _558  and  _560
REMARK  228  A    between atoms: _560  and  _561
REMARK  229  A    between atoms: _560  and  _563
REMARK  230  A    between atoms: _566  and  _568
REMARK  231  A    between atoms: _568  and  _569
REMARK  232  A    between atoms: _568  and  _571
REMARK  233  A    between atoms: _571  and  _572
REMARK  234  A    between atoms: _575  and  _577
REMARK  235  A    between atoms: _577  and  _578
REMARK  236  A    between atoms: _577  and  _580
REMARK  237  A    between atoms: _580  and  _581
REMARK  238  A    between atoms: _581  and  _582
REMARK  239  A    between atoms: _584  and  _586
REMARK  240  A    between atoms: _586  and  _587
REMARK  241  A    between atoms: _586  and  _589
REMARK  242  A    between atoms: _589  and  _590
REMARK  243  A    between atoms: _593  and  _595
REMARK  244  A    between atoms: _595  and  _596
REMARK  245  A    between atoms: _595  and  _598
REMARK  246  A    between atoms: _598  and  _599
REMARK  247  A    between atoms: _602  and  _604
REMARK  248  A    between atoms: _604  and  _605
REMARK  249  A    between atoms: _607  and  _609
REMARK  250  A    between atoms: _609  and  _610
REMARK  251  A    between atoms: _609  and  _612
REMARK  252  A    between atoms: _612  and  _613
REMARK  253  A    between atoms: _615  and  _617
REMARK  254  A    between atoms: _617  and  _618
REMARK  255  A    between atoms: _617  and  _620
REMARK  256  A    between atoms: _620  and  _621
REMARK  257  A    between atoms: _631  and  _633
REMARK  258  A    between atoms: _633  and  _634
REMARK  259  A    between atoms: _633  and  _636
REMARK  260  A    between atoms: _636  and  _637
REMARK  261  A    between atoms: _639  and  _641
REMARK  262  A    between atoms: _641  and  _642
REMARK  263  A    between atoms: _641  and  _644
REMARK  264  A    between atoms: _644  and  _645
REMARK  265  A    between atoms: _648  and  _650
REMARK  266  A    between atoms: _650  and  _651
REMARK  267  A    between atoms: _654  and  _656
REMARK  268  A    between atoms: _656  and  _657
REMARK  269  A    between atoms: _656  and  _659
REMARK  270  A    between atoms: _659  and  _660
REMARK  271  A    between atoms: _662  and  _664
REMARK  272  A    between atoms: _664  and  _665
REMARK  273  A    between atoms: _664  and  _667
REMARK  274  A    between atoms: _667  and  _668
REMARK  275  A    between atoms: _668  and  _669
REMARK  276  A    between atoms: _673  and  _674
REMARK  277  A    between atoms: _679  and  _681
REMARK  278  A    between atoms: _681  and  _682
REMARK  279  A    between atoms: _681  and  _684
REMARK  280  A    between atoms: _684  and  _685
REMARK  281  A    between atoms: _687  and  _689
REMARK  282  A    between atoms: _689  and  _690
REMARK  283  A    between atoms: _689  and  _692
REMARK  284  A    between atoms: _692  and  _693
REMARK  285  A    between atoms: _693  and  _694
REMARK  286  A    between atoms: _699  and  _701
REMARK  287  A    between atoms: _701  and  _702
REMARK  288  A    between atoms: _701  and  _704
REMARK  289  A    between atoms: _704  and  _705
REMARK  290  A    between atoms: _705  and  _706
REMARK  291  A    between atoms: _711  and  _713
REMARK  292  A    between atoms: _713  and  _714
REMARK  293  A    between atoms: _713  and  _716
REMARK  294  A    between atoms: _716  and  _717
REMARK  295  A    between atoms: _720  and  _722
REMARK  296  A    between atoms: _722  and  _723
REMARK  297  A    between atoms: _722  and  _725
REMARK  298  A    between atoms: _725  and  _726
REMARK  299  A    between atoms: _729  and  _731
REMARK  300  A    between atoms: _731  and  _732
REMARK  301  A    between atoms: _731  and  _734
REMARK  302  A    between atoms: _734  and  _735
REMARK  303  A    between atoms: _741  and  _743
REMARK  304  A    between atoms: _743  and  _744
REMARK  305  A    between atoms: _743  and  _746
REMARK  306  A    between atoms: _746  and  _747
REMARK  307  A    between atoms: _752  and  _753
REMARK  308  A    between atoms: _755  and  _757
REMARK  309  A    between atoms: _757  and  _758
REMARK  310  A    between atoms: _757  and  _760
REMARK  311  A    between atoms: _760  and  _761
REMARK  312  A    between atoms: _767  and  _769
REMARK  313  A    between atoms: _769  and  _770
REMARK  314  A    between atoms: _769  and  _772
REMARK  315  A    between atoms: _772  and  _773
REMARK  316  A    between atoms: _778  and  _780
REMARK  317  A    between atoms: _780  and  _781
REMARK  318  A    between atoms: _780  and  _783
REMARK  319  A    between atoms: _783  and  _784
REMARK  320  A    between atoms: _784  and  _785
REMARK                            x       y       z     vdW  Elec       q    Type
REMARK                         _______ _______ _______ _____ _____    ______ ____
ROOT
ATOM      1  O   HOH     1      21.830  47.672  23.681  0.00  0.00    +0.000 OA
ENDROOT
TORSDOF 0
REMARK  Name = ../refined-set-2016/3drf/3drf_pocket.pdb
REMARK  320 active torsions:
REMARK  status: ('A' for Active; 'I' for Inactive)
REMARK    1  A    between atoms: _1  and  _3
REMARK    2  A    between atoms: _3  and  _4
REMARK    3  A    between atoms: _3  and  _6
REMARK    4  A    between atoms: _6  and  _7
REMARK    5  A    between atoms: _12  and  _13
REMARK    6  A    between atoms: _15  and  _17
REMARK    7  A    between atoms: _17  and  _18
REMARK    8  A    between atoms: _17  and  _20
REMARK    9  A    between atoms: _20  and  _21
REMARK   10  A    between atoms: _21  and  _22
REMARK   11  A    between atoms: _27  and  _29
REMARK   12  A    between atoms: _29  and  _30
REMARK   13  A    between atoms: _29  and  _32
REMARK   14  A    between atoms: _32  and  _33
REMARK   15  A    between atoms: _35  and  _37
REMARK   16  A    between atoms: _37  and  _38
REMARK   17  A    between atoms: _37  and  _40
REMARK   18  A    between atoms: _40  and  _41
REMARK   19  A    between atoms: _44  and  _46
REMARK   20  A    between atoms: _46  and  _47
REMARK   21  A    between atoms: _46  and  _49
REMARK   22  A    between atoms: _49  and  _50
REMARK   23  A    between atoms: _52  and  _54
REMARK   24  A    between atoms: _54  and  _55
REMARK   25  A    between atoms: _54  and  _57
REMARK   26  A    between atoms: _57  and  _58
REMARK   27  A    between atoms: _60  and  _62
REMARK   28  A    between atoms: _62  and  _63
REMARK   29  A    between atoms: _65  and  _67
REMARK   30  A    between atoms: _67  and  _68
REMARK   31  A    between atoms: _67  and  _70
REMARK   32  A    between atoms: _70  and  _71
REMARK   33  A    between atoms: _73  and  _75
REMARK   34  A    between atoms: _75  and  _76
REMARK   35  A    between atoms: _75  and  _78
REMARK   36  A    between atoms: _78  and  _79
REMARK   37  A    between atoms: _84  and  _86
REMARK   38  A    between atoms: _86  and  _87
REMARK   39  A    between atoms: _86  and  _89
REMARK   40  A    between atoms: _89  and  _90
REMARK   41  A    between atoms: _93  and  _95
REMARK   42  A    between atoms: _95  and  _96
REMARK   43  A    between atoms: _99  and  _101
REMARK   44  A    between atoms: _101  and  _102
REMARK   45  A    between atoms: _101  and  _104
REMARK   46  A    between atoms: _104  and  _105
REMARK   47  A    between atoms: _108  and  _110
REMARK   48  A    between atoms: _110  and  _111
REMARK   49  A    between atoms: _110  and  _113
REMARK   50  A    between atoms: _113  and  _114
REMARK   51  A    between atoms: _120  and  _122
REMARK   52  A    between atoms: _122  and  _123
REMARK   53  A    between atoms: _126  and  _128
REMARK   54  A    between atoms: _128  and  _129
REMARK   55  A    between atoms: _128  and  _131
REMARK   56  A    between atoms: _131  and  _132
REMARK   57  A    between atoms: _135  and  _137
REMARK   58  A    between atoms: _137  and  _138
REMARK   59  A    between atoms: _140  and  _142
REMARK   60  A    between atoms: _142  and  _143
REMARK   61  A    between atoms: _142  and  _145
REMARK   62  A    between atoms: _145  and  _146
REMARK   63  A    between atoms: _146  and  _147
REMARK   64  A    between atoms: _152  and  _154
REMARK   65  A    between atoms: _154  and  _155
REMARK   66  A    between atoms: _157  and  _159
REMARK   67  A    between atoms: _159  and  _160
REMARK   68  A    between atoms: _159  and  _162
REMARK   69  A    between atoms: _162  and  _163
REMARK   70  A    between atoms: _166  and  _168
REMARK   71  A    between atoms: _168  and  _169
REMARK   72  A    between atoms: _168  and  _171
REMARK   73  A    between atoms: _171  and  _172
REMARK   74  A    between atoms: _178  and  _180
REMARK   75  A    between atoms: _180  and  _181
REMARK   76  A    between atoms: _180  and  _183
REMARK   77  A    between atoms: _183  and  _184
REMARK   78  A    between atoms: _187  and  _189
REMARK   79  A    between atoms: _189  and  _190
REMARK   80  A    between atoms: _189  and  _192
REMARK   81  A    between atoms: _192  and  _193
REMARK   82  A    between atoms: _199  and  _201
REMARK   83  A    between atoms: _201  and  _202
REMARK   84  A    between atoms: _201  and  _204
REMARK   85  A    between atoms: _204  and  _205
REMARK   86  A    between atoms: _211  and  _213
REMARK   87  A    between atoms: _213  and  _214
REMARK   88  A    between atoms: _213  and  _216
REMARK   89  A    between atoms: _216  and  _217
REMARK   90  A    between atoms: _220  and  _222
REMARK   91  A    between atoms: _222  and  _223
REMARK   92  A    between atoms: _222  and  _225
REMARK   93  A    between atoms: _225  and  _226
REMARK   94  A    between atoms: _229  and  _231
REMARK   95  A    between atoms: _231  and  _232
REMARK   96  A    between atoms: _231  and  _234
REMARK   97  A    between atoms: _234  and  _235
REMARK   98  A    between atoms: _235  and  _236
REMARK   99  A    between atoms: _236  and  _237
REMARK  100  A    between atoms: _246  and  _248
REMARK  101  A    between atoms: _248  and  _249
REMARK  102  A    between atoms: _248  and  _251
REMARK  103  A    between atoms: _251  and  _252
REMARK  104  A    between atoms: _255  and  _257
REMARK  105  A    between atoms: _257  and  _258
REMARK  106  A    between atoms: _257  and  _260
REMARK  107  A    between atoms: _260  and  _261
REMARK  108  A    between atoms: _263  and  _265
REMARK  109  A    between atoms: _265  and  _266
REMARK  110  A    between atoms: _265  and  _268
REMARK  111  A    between atoms: _268  and  _269
REMARK  112  A    between atoms: _269  and  _270
REMARK  113  A    between atoms: _275  and  _277
REMARK  114  A    between atoms: _277  and  _278
REMARK  115  A    between atoms: _277  and  _280
REMARK  116  A    between atoms: _280  and  _281
REMARK  117  A    between atoms: _283  and  _285
REMARK  118  A    between atoms: _285  and  _286
REMARK  119  A    between atoms: _288  and  _290
REMARK  120  A    between atoms: _290  and  _291
REMARK  121  A    between atoms: _290  and  _293
REMARK  122  A    between atoms: _293  and  _294
REMARK  123  A    between atoms: _299  and  _301
REMARK  124  A    between atoms: _301  and  _302
REMARK  125  A    between atoms: _304  and  _306
REMARK  126  A    between atoms: _306  and  _307
REMARK  127  A    between atoms: _306  and  _309
REMARK  128  A    between atoms: _309  and  _310
REMARK  129  A    between atoms: _315  and  _316
REMARK  130  A    between atoms: _318  and  _320
REMARK  131  A    between atoms: _320  and  _321
REMARK  132  A    between atoms: _320  and  _323
REMARK  133  A    between atoms: _323  and  _324
REMARK  134  A    between atoms: _330  and  _332
REMARK  135  A    between atoms: _332  and  _333
REMARK  136  A    between atoms: _332  and  _335
REMARK  137  A    between atoms: _335  and  _336
REMARK  138  A    between atoms: _339  and  _341
REMARK  139  A    between atoms: _341  and  _342
REMARK  140  A    between atoms: _341  and  _344
REMARK  141  A    between atoms: _344  and  _345
REMARK  142  A    between atoms: _345  and  _346
REMARK  143  A    between atoms: _349  and  _351
REMARK  144  A    between atoms: _351  and  _352
REMARK  145  A    between atoms: _351  and  _354
REMARK  146  A    between atoms: _354  and  _355
REMARK  147  A    between atoms: _358  and  _360
REMARK  148  A    between atoms: _360  and  _361
REMARK  149  A    between atoms: _360  and  _363
REMARK  150  A    between atoms: _363  and  _364
REMARK  151  A    between atoms: _367  and  _369
REMARK  152  A    between atoms: _369  and  _370
REMARK  153  A    between atoms: _372  and  _374
REMARK  154  A    between atoms: _374  and  _375
REMARK  155  A    between atoms: _374  and  _377
REMARK  156  A    between atoms: _380  and  _382
REMARK  157  A    between atoms: _382  and  _383
REMARK  158  A    between atoms: _382  and  _385
REMARK  159  A    between atoms: _385  and  _386
REMARK  160  A    between atoms: _388  and  _390
REMARK  161  A    between atoms: _390  and  _391
REMARK  162  A    between atoms: _390  and  _393
REMARK  163  A    between atoms: _393  and  _394
REMARK  164  A    between atoms: _394  and  _395
REMARK  165  A    between atoms: _397  and  _399
REMARK  166  A    between atoms: _399  and  _400
REMARK  167  A    between atoms: _399  and  _402
REMARK  168  A    between atoms: _402  and  _403
REMARK  169  A    between atoms: _408  and  _409
REMARK  170  A    between atoms: _411  and  _413
REMARK  171  A    between atoms: _413  and  _414
REMARK  172  A    between atoms: _413  and  _416
REMARK  173  A    between atoms: _416  and  _417
REMARK  174  A    between atoms: _420  and  _422
REMARK  175  A    between atoms: _422  and  _423
REMARK  176  A    between atoms: _422  and  _425
REMARK  177  A    between atoms: _425  and  _426
REMARK  178  A    between atoms: _428  and  _430
REMARK  179  A    between atoms: _430  and  _431
REMARK  180  A    between atoms: _430  and  _433
REMARK  181  A    between atoms: _433  and  _434
REMARK  182  A    between atoms: _437  and  _439
REMARK  183  A    between atoms: _439  and  _440
REMARK  184  A    between atoms: _439  and  _442
REMARK  185  A    between atoms: _442  and  _443
REMARK  186  A    between atoms: _448  and  _449
REMARK  187  A    between atoms: _451  and  _453
REMARK  188  A    between atoms: _453  and  _454
REMARK  189  A    between atoms: _453  and  _456
REMARK  190  A    between atoms: _456  and  _457
REMARK  191  A    between atoms: _459  and  _461
REMARK  192  A    between atoms: _461  and  _462
REMARK  193  A    between atoms: _461  and  _464
REMARK  194  A    between atoms: _464  and  _465
REMARK  195  A    between atoms: _471  and  _473
REMARK  196  A    between atoms: _473  and  _474
REMARK  197  A    between atoms: _473  and  _476
REMARK  198  A    between atoms: _476  and  _477
REMARK  199  A    between atoms: _477  and  _478
REMARK  200  A    between atoms: _478  and  _479
REMARK  201  A    between atoms: _488  and  _490
REMARK  202  A    between atoms: _490  and  _491
REMARK  203  A    between atoms: _490  and  _493
REMARK  204  A    between atoms: _496  and  _498
REMARK  205  A    between atoms: _498  and  _499
REMARK  206  A    between atoms: _501  and  _503
REMARK  207  A    between atoms: _503  and  _504
REMARK  208  A    between atoms: _503  and  _506
REMARK  209  A    between atoms: _506  and  _507
REMARK  210  A    between atoms: _510  and  _512
REMARK  211  A    between atoms: _512  and  _513
REMARK  212  A    between atoms: _512  and  _515
REMARK  213  A    between atoms: _515  and  _516
REMARK  214  A    between atoms: _516  and  _517
REMARK  215  A    between atoms: _519  and  _521
REMARK  216  A    between atoms: _521  and  _522
REMARK  217  A    between atoms: _521  and  _524
REMARK  218  A    between atoms: _524  and  _525
REMARK  219  A    between atoms: _531  and  _533
REMARK  220  A    between atoms: _533  and  _534
REMARK  221  A    between atoms: _533  and  _536
REMARK  222  A    between atoms: _536  and  _537
REMARK  223  A    between atoms: _542  and  _544
REMARK  224  A    between atoms: _544  and  _545
REMARK  225  A    between atoms: _544  and  _547
REMARK  226  A    between atoms: _547  and  _548
REMARK  227  A    between atoms: _558  and  _560
REMARK  228  A    between atoms: _560  and  _561
REMARK  229  A    between atoms: _560  and  _563
REMARK  230  A    between atoms: _566  and  _568
REMARK  231  A    between atoms: _568  and  _569
REMARK  232  A    between atoms: _568  and  _571
REMARK  233  A    between atoms: _571  and  _572
REMARK  234  A    between atoms: _575  and  _577
REMARK  235  A    between atoms: _577  and  _578
REMARK  236  A    between atoms: _577  and  _580
REMARK  237  A    between atoms: _580  and  _581
REMARK  238  A    between atoms: _581  and  _582
REMARK  239  A    between atoms: _584  and  _586
REMARK  240  A    between atoms: _586  and  _587
REMARK  241  A    between atoms: _586  and  _589
REMARK  242  A    between atoms: _589  and  _590
REMARK  243  A    between atoms: _593  and  _595
REMARK  244  A    between atoms: _595  and  _596
REMARK  245  A    between atoms: _595  and  _598
REMARK  246  A    between atoms: _598  and  _599
REMARK  247  A    between atoms: _602  and  _604
REMARK  248  A    between atoms: _604  and  _605
REMARK  249  A    between atoms: _607  and  _609
REMARK  250  A    between atoms: _609  and  _610
REMARK  251  A    between atoms: _609  and  _612
REMARK  252  A    between atoms: _612  and  _613
REMARK  253  A    between atoms: _615  and  _617
REMARK  254  A    between atoms: _617  and  _618
REMARK  255  A    between atoms: _617  and  _620
REMARK  256  A    between atoms: _620  and  _621
REMARK  257  A    between atoms: _631  and  _633
REMARK  258  A    between atoms: _633  and  _634
REMARK  259  A    between atoms: _633  and  _636
REMARK  260  A    between atoms: _636  and  _637
REMARK  261  A    between atoms: _639  and  _641
REMARK  262  A    between atoms: _641  and  _642
REMARK  263  A    between atoms: _641  and  _644
REMARK  264  A    between atoms: _644  and  _645
REMARK  265  A    between atoms: _648  and  _650
REMARK  266  A    between atoms: _650  and  _651
REMARK  267  A    between atoms: _654  and  _656
REMARK  268  A    between atoms: _656  and  _657
REMARK  269  A    between atoms: _656  and  _659
REMARK  270  A    between atoms: _659  and  _660
REMARK  271  A    between atoms: _662  and  _664
REMARK  272  A    between atoms: _664  and  _665
REMARK  273  A    between atoms: _664  and  _667
REMARK  274  A    between atoms: _667  and  _668
REMARK  275  A    between atoms: _668  and  _669
REMARK  276  A    between atoms: _673  and  _674
REMARK  277  A    between atoms: _679  and  _681
REMARK  278  A    between atoms: _681  and  _682
REMARK  279  A    between atoms: _681  and  _684
REMARK  280  A    between atoms: _684  and  _685
REMARK  281  A    between atoms: _687  and  _689
REMARK  282  A    between atoms: _689  and  _690
REMARK  283  A    between atoms: _689  and  _692
REMARK  284  A    between atoms: _692  and  _693
REMARK  285  A    between atoms: _693  and  _694
REMARK  286  A    between atoms: _699  and  _701
REMARK  287  A    between atoms: _701  and  _702
REMARK  288  A    between atoms: _701  and  _704
REMARK  289  A    between atoms: _704  and  _705
REMARK  290  A    between atoms: _705  and  _706
REMARK  291  A    between atoms: _711  and  _713
REMARK  292  A    between atoms: _713  and  _714
REMARK  293  A    between atoms: _713  and  _716
REMARK  294  A    between atoms: _716  and  _717
REMARK  295  A    between atoms: _720  and  _722
REMARK  296  A    between atoms: _722  and  _723
REMARK  297  A    between atoms: _722  and  _725
REMARK  298  A    between atoms: _725  and  _726
REMARK  299  A    between atoms: _729  and  _731
REMARK  300  A    between atoms: _731  and  _732
REMARK  301  A    between atoms: _731  and  _734
REMARK  302  A    between atoms: _734  and  _735
REMARK  303  A    between atoms: _741  and  _743
REMARK  304  A    between atoms: _743  and  _744
REMARK  305  A    between atoms: _743  and  _746
REMARK  306  A    between atoms: _746  and  _747
REMARK  307  A    between atoms: _752  and  _753
REMARK  308  A    between atoms: _755  and  _757
REMARK  309  A    between atoms: _757  and  _758
REMARK  310  A    between atoms: _757  and  _760
REMARK  311  A    between atoms: _760  and  _761
REMARK  312  A    between atoms: _767  and  _769
REMARK  313  A    between atoms: _769  and  _770
REMARK  314  A    between atoms: _769  and  _772
REMARK  315  A    between atoms: _772  and  _773
REMARK  316  A    between atoms: _778  and  _780
REMARK  317  A    between atoms: _780  and  _781
REMARK  318  A    between atoms: _780  and  _783
REMARK  319  A    between atoms: _783  and  _784
REMARK  320  A    between atoms: _784  and  _785
REMARK                            x       y       z     vdW  Elec       q    Type
REMARK                         _______ _______ _______ _____ _____    ______ ____
ROOT
ATOM      1  O   HOH     1      19.723  47.836  20.022  0.00  0.00    +0.000 OA
ENDROOT
TORSDOF 0
REMARK  Name = ../refined-set-2016/3drf/3drf_pocket.pdb
REMARK  320 active torsions:
REMARK  status: ('A' for Active; 'I' for Inactive)
REMARK    1  A    between atoms: _1  and  _3
REMARK    2  A    between atoms: _3  and  _4
REMARK    3  A    between atoms: _3  and  _6
REMARK    4  A    between atoms: _6  and  _7
REMARK    5  A    between atoms: _12  and  _13
REMARK    6  A    between atoms: _15  and  _17
REMARK    7  A    between atoms: _17  and  _18
REMARK    8  A    between atoms: _17  and  _20
REMARK    9  A    between atoms: _20  and  _21
REMARK   10  A    between atoms: _21  and  _22
REMARK   11  A    between atoms: _27  and  _29
REMARK   12  A    between atoms: _29  and  _30
REMARK   13  A    between atoms: _29  and  _32
REMARK   14  A    between atoms: _32  and  _33
REMARK   15  A    between atoms: _35  and  _37
REMARK   16  A    between atoms: _37  and  _38
REMARK   17  A    between atoms: _37  and  _40
REMARK   18  A    between atoms: _40  and  _41
REMARK   19  A    between atoms: _44  and  _46
REMARK   20  A    between atoms: _46  and  _47
REMARK   21  A    between atoms: _46  and  _49
REMARK   22  A    between atoms: _49  and  _50
REMARK   23  A    between atoms: _52  and  _54
REMARK   24  A    between atoms: _54  and  _55
REMARK   25  A    between atoms: _54  and  _57
REMARK   26  A    between atoms: _57  and  _58
REMARK   27  A    between atoms: _60  and  _62
REMARK   28  A    between atoms: _62  and  _63
REMARK   29  A    between atoms: _65  and  _67
REMARK   30  A    between atoms: _67  and  _68
REMARK   31  A    between atoms: _67  and  _70
REMARK   32  A    between atoms: _70  and  _71
REMARK   33  A    between atoms: _73  and  _75
REMARK   34  A    between atoms: _75  and  _76
REMARK   35  A    between atoms: _75  and  _78
REMARK   36  A    between atoms: _78  and  _79
REMARK   37  A    between atoms: _84  and  _86
REMARK   38  A    between atoms: _86  and  _87
REMARK   39  A    between atoms: _86  and  _89
REMARK   40  A    between atoms: _89  and  _90
REMARK   41  A    between atoms: _93  and  _95
REMARK   42  A    between atoms: _95  and  _96
REMARK   43  A    between atoms: _99  and  _101
REMARK   44  A    between atoms: _101  and  _102
REMARK   45  A    between atoms: _101  and  _104
REMARK   46  A    between atoms: _104  and  _105
REMARK   47  A    between atoms: _108  and  _110
REMARK   48  A    between atoms: _110  and  _111
REMARK   49  A    between atoms: _110  and  _113
REMARK   50  A    between atoms: _113  and  _114
REMARK   51  A    between atoms: _120  and  _122
REMARK   52  A    between atoms: _122  and  _123
REMARK   53  A    between atoms: _126  and  _128
REMARK   54  A    between atoms: _128  and  _129
REMARK   55  A    between atoms: _128  and  _131
REMARK   56  A    between atoms: _131  and  _132
REMARK   57  A    between atoms: _135  and  _137
REMARK   58  A    between atoms: _137  and  _138
REMARK   59  A    between atoms: _140  and  _142
REMARK   60  A    between atoms: _142  and  _143
REMARK   61  A    between atoms: _142  and  _145
REMARK   62  A    between atoms: _145  and  _146
REMARK   63  A    between atoms: _146  and  _147
REMARK   64  A    between atoms: _152  and  _154
REMARK   65  A    between atoms: _154  and  _155
REMARK   66  A    between atoms: _157  and  _159
REMARK   67  A    between atoms: _159  and  _160
REMARK   68  A    between atoms: _159  and  _162
REMARK   69  A    between atoms: _162  and  _163
REMARK   70  A    between atoms: _166  and  _168
REMARK   71  A    between atoms: _168  and  _169
REMARK   72  A    between atoms: _168  and  _171
REMARK   73  A    between atoms: _171  and  _172
REMARK   74  A    between atoms: _178  and  _180
REMARK   75  A    between atoms: _180  and  _181
REMARK   76  A    between atoms: _180  and  _183
REMARK   77  A    between atoms: _183  and  _184
REMARK   78  A    between atoms: _187  and  _189
REMARK   79  A    between atoms: _189  and  _190
REMARK   80  A    between atoms: _189  and  _192
REMARK   81  A    between atoms: _192  and  _193
REMARK   82  A    between atoms: _199  and  _201
REMARK   83  A    between atoms: _201  and  _202
REMARK   84  A    between atoms: _201  and  _204
REMARK   85  A    between atoms: _204  and  _205
REMARK   86  A    between atoms: _211  and  _213
REMARK   87  A    between atoms: _213  and  _214
REMARK   88  A    between atoms: _213  and  _216
REMARK   89  A    between atoms: _216  and  _217
REMARK   90  A    between atoms: _220  and  _222
REMARK   91  A    between atoms: _222  and  _223
REMARK   92  A    between atoms: _222  and  _225
REMARK   93  A    between atoms: _225  and  _226
REMARK   94  A    between atoms: _229  and  _231
REMARK   95  A    between atoms: _231  and  _232
REMARK   96  A    between atoms: _231  and  _234
REMARK   97  A    between atoms: _234  and  _235
REMARK   98  A    between atoms: _235  and  _236
REMARK   99  A    between atoms: _236  and  _237
REMARK  100  A    between atoms: _246  and  _248
REMARK  101  A    between atoms: _248  and  _249
REMARK  102  A    between atoms: _248  and  _251
REMARK  103  A    between atoms: _251  and  _252
REMARK  104  A    between atoms: _255  and  _257
REMARK  105  A    between atoms: _257  and  _258
REMARK  106  A    between atoms: _257  and  _260
REMARK  107  A    between atoms: _260  and  _261
REMARK  108  A    between atoms: _263  and  _265
REMARK  109  A    between atoms: _265  and  _266
REMARK  110  A    between atoms: _265  and  _268
REMARK  111  A    between atoms: _268  and  _269
REMARK  112  A    between atoms: _269  and  _270
REMARK  113  A    between atoms: _275  and  _277
REMARK  114  A    between atoms: _277  and  _278
REMARK  115  A    between atoms: _277  and  _280
REMARK  116  A    between atoms: _280  and  _281
REMARK  117  A    between atoms: _283  and  _285
REMARK  118  A    between atoms: _285  and  _286
REMARK  119  A    between atoms: _288  and  _290
REMARK  120  A    between atoms: _290  and  _291
REMARK  121  A    between atoms: _290  and  _293
REMARK  122  A    between atoms: _293  and  _294
REMARK  123  A    between atoms: _299  and  _301
REMARK  124  A    between atoms: _301  and  _302
REMARK  125  A    between atoms: _304  and  _306
REMARK  126  A    between atoms: _306  and  _307
REMARK  127  A    between atoms: _306  and  _309
REMARK  128  A    between atoms: _309  and  _310
REMARK  129  A    between atoms: _315  and  _316
REMARK  130  A    between atoms: _318  and  _320
REMARK  131  A    between atoms: _320  and  _321
REMARK  132  A    between atoms: _320  and  _323
REMARK  133  A    between atoms: _323  and  _324
REMARK  134  A    between atoms: _330  and  _332
REMARK  135  A    between atoms: _332  and  _333
REMARK  136  A    between atoms: _332  and  _335
REMARK  137  A    between atoms: _335  and  _336
REMARK  138  A    between atoms: _339  and  _341
REMARK  139  A    between atoms: _341  and  _342
REMARK  140  A    between atoms: _341  and  _344
REMARK  141  A    between atoms: _344  and  _345
REMARK  142  A    between atoms: _345  and  _346
REMARK  143  A    between atoms: _349  and  _351
REMARK  144  A    between atoms: _351  and  _352
REMARK  145  A    between atoms: _351  and  _354
REMARK  146  A    between atoms: _354  and  _355
REMARK  147  A    between atoms: _358  and  _360
REMARK  148  A    between atoms: _360  and  _361
REMARK  149  A    between atoms: _360  and  _363
REMARK  150  A    between atoms: _363  and  _364
REMARK  151  A    between atoms: _367  and  _369
REMARK  152  A    between atoms: _369  and  _370
REMARK  153  A    between atoms: _372  and  _374
REMARK  154  A    between atoms: _374  and  _375
REMARK  155  A    between atoms: _374  and  _377
REMARK  156  A    between atoms: _380  and  _382
REMARK  157  A    between atoms: _382  and  _383
REMARK  158  A    between atoms: _382  and  _385
REMARK  159  A    between atoms: _385  and  _386
REMARK  160  A    between atoms: _388  and  _390
REMARK  161  A    between atoms: _390  and  _391
REMARK  162  A    between atoms: _390  and  _393
REMARK  163  A    between atoms: _393  and  _394
REMARK  164  A    between atoms: _394  and  _395
REMARK  165  A    between atoms: _397  and  _399
REMARK  166  A    between atoms: _399  and  _400
REMARK  167  A    between atoms: _399  and  _402
REMARK  168  A    between atoms: _402  and  _403
REMARK  169  A    between atoms: _408  and  _409
REMARK  170  A    between atoms: _411  and  _413
REMARK  171  A    between atoms: _413  and  _414
REMARK  172  A    between atoms: _413  and  _416
REMARK  173  A    between atoms: _416  and  _417
REMARK  174  A    between atoms: _420  and  _422
REMARK  175  A    between atoms: _422  and  _423
REMARK  176  A    between atoms: _422  and  _425
REMARK  177  A    between atoms: _425  and  _426
REMARK  178  A    between atoms: _428  and  _430
REMARK  179  A    between atoms: _430  and  _431
REMARK  180  A    between atoms: _430  and  _433
REMARK  181  A    between atoms: _433  and  _434
REMARK  182  A    between atoms: _437  and  _439
REMARK  183  A    between atoms: _439  and  _440
REMARK  184  A    between atoms: _439  and  _442
REMARK  185  A    between atoms: _442  and  _443
REMARK  186  A    between atoms: _448  and  _449
REMARK  187  A    between atoms: _451  and  _453
REMARK  188  A    between atoms: _453  and  _454
REMARK  189  A    between atoms: _453  and  _456
REMARK  190  A    between atoms: _456  and  _457
REMARK  191  A    between atoms: _459  and  _461
REMARK  192  A    between atoms: _461  and  _462
REMARK  193  A    between atoms: _461  and  _464
REMARK  194  A    between atoms: _464  and  _465
REMARK  195  A    between atoms: _471  and  _473
REMARK  196  A    between atoms: _473  and  _474
REMARK  197  A    between atoms: _473  and  _476
REMARK  198  A    between atoms: _476  and  _477
REMARK  199  A    between atoms: _477  and  _478
REMARK  200  A    between atoms: _478  and  _479
REMARK  201  A    between atoms: _488  and  _490
REMARK  202  A    between atoms: _490  and  _491
REMARK  203  A    between atoms: _490  and  _493
REMARK  204  A    between atoms: _496  and  _498
REMARK  205  A    between atoms: _498  and  _499
REMARK  206  A    between atoms: _501  and  _503
REMARK  207  A    between atoms: _503  and  _504
REMARK  208  A    between atoms: _503  and  _506
REMARK  209  A    between atoms: _506  and  _507
REMARK  210  A    between atoms: _510  and  _512
REMARK  211  A    between atoms: _512  and  _513
REMARK  212  A    between atoms: _512  and  _515
REMARK  213  A    between atoms: _515  and  _516
REMARK  214  A    between atoms: _516  and  _517
REMARK  215  A    between atoms: _519  and  _521
REMARK  216  A    between atoms: _521  and  _522
REMARK  217  A    between atoms: _521  and  _524
REMARK  218  A    between atoms: _524  and  _525
REMARK  219  A    between atoms: _531  and  _533
REMARK  220  A    between atoms: _533  and  _534
REMARK  221  A    between atoms: _533  and  _536
REMARK  222  A    between atoms: _536  and  _537
REMARK  223  A    between atoms: _542  and  _544
REMARK  224  A    between atoms: _544  and  _545
REMARK  225  A    between atoms: _544  and  _547
REMARK  226  A    between atoms: _547  and  _548
REMARK  227  A    between atoms: _558  and  _560
REMARK  228  A    between atoms: _560  and  _561
REMARK  229  A    between atoms: _560  and  _563
REMARK  230  A    between atoms: _566  and  _568
REMARK  231  A    between atoms: _568  and  _569
REMARK  232  A    between atoms: _568  and  _571
REMARK  233  A    between atoms: _571  and  _572
REMARK  234  A    between atoms: _575  and  _577
REMARK  235  A    between atoms: _577  and  _578
REMARK  236  A    between atoms: _577  and  _580
REMARK  237  A    between atoms: _580  and  _581
REMARK  238  A    between atoms: _581  and  _582
REMARK  239  A    between atoms: _584  and  _586
REMARK  240  A    between atoms: _586  and  _587
REMARK  241  A    between atoms: _586  and  _589
REMARK  242  A    between atoms: _589  and  _590
REMARK  243  A    between atoms: _593  and  _595
REMARK  244  A    between atoms: _595  and  _596
REMARK  245  A    between atoms: _595  and  _598
REMARK  246  A    between atoms: _598  and  _599
REMARK  247  A    between atoms: _602  and  _604
REMARK  248  A    between atoms: _604  and  _605
REMARK  249  A    between atoms: _607  and  _609
REMARK  250  A    between atoms: _609  and  _610
REMARK  251  A    between atoms: _609  and  _612
REMARK  252  A    between atoms: _612  and  _613
REMARK  253  A    between atoms: _615  and  _617
REMARK  254  A    between atoms: _617  and  _618
REMARK  255  A    between atoms: _617  and  _620
REMARK  256  A    between atoms: _620  and  _621
REMARK  257  A    between atoms: _631  and  _633
REMARK  258  A    between atoms: _633  and  _634
REMARK  259  A    between atoms: _633  and  _636
REMARK  260  A    between atoms: _636  and  _637
REMARK  261  A    between atoms: _639  and  _641
REMARK  262  A    between atoms: _641  and  _642
REMARK  263  A    between atoms: _641  and  _644
REMARK  264  A    between atoms: _644  and  _645
REMARK  265  A    between atoms: _648  and  _650
REMARK  266  A    between atoms: _650  and  _651
REMARK  267  A    between atoms: _654  and  _656
REMARK  268  A    between atoms: _656  and  _657
REMARK  269  A    between atoms: _656  and  _659
REMARK  270  A    between atoms: _659  and  _660
REMARK  271  A    between atoms: _662  and  _664
REMARK  272  A    between atoms: _664  and  _665
REMARK  273  A    between atoms: _664  and  _667
REMARK  274  A    between atoms: _667  and  _668
REMARK  275  A    between atoms: _668  and  _669
REMARK  276  A    between atoms: _673  and  _674
REMARK  277  A    between atoms: _679  and  _681
REMARK  278  A    between atoms: _681  and  _682
REMARK  279  A    between atoms: _681  and  _684
REMARK  280  A    between atoms: _684  and  _685
REMARK  281  A    between atoms: _687  and  _689
REMARK  282  A    between atoms: _689  and  _690
REMARK  283  A    between atoms: _689  and  _692
REMARK  284  A    between atoms: _692  and  _693
REMARK  285  A    between atoms: _693  and  _694
REMARK  286  A    between atoms: _699  and  _701
REMARK  287  A    between atoms: _701  and  _702
REMARK  288  A    between atoms: _701  and  _704
REMARK  289  A    between atoms: _704  and  _705
REMARK  290  A    between atoms: _705  and  _706
REMARK  291  A    between atoms: _711  and  _713
REMARK  292  A    between atoms: _713  and  _714
REMARK  293  A    between atoms: _713  and  _716
REMARK  294  A    between atoms: _716  and  _717
REMARK  295  A    between atoms: _720  and  _722
REMARK  296  A    between atoms: _722  and  _723
REMARK  297  A    between atoms: _722  and  _725
REMARK  298  A    between atoms: _725  and  _726
REMARK  299  A    between atoms: _729  and  _731
REMARK  300  A    between atoms: _731  and  _732
REMARK  301  A    between atoms: _731  and  _734
REMARK  302  A    between atoms: _734  and  _735
REMARK  303  A    between atoms: _741  and  _743
REMARK  304  A    between atoms: _743  and  _744
REMARK  305  A    between atoms: _743  and  _746
REMARK  306  A    between atoms: _746  and  _747
REMARK  307  A    between atoms: _752  and  _753
REMARK  308  A    between atoms: _755  and  _757
REMARK  309  A    between atoms: _757  and  _758
REMARK  310  A    between atoms: _757  and  _760
REMARK  311  A    between atoms: _760  and  _761
REMARK  312  A    between atoms: _767  and  _769
REMARK  313  A    between atoms: _769  and  _770
REMARK  314  A    between atoms: _769  and  _772
REMARK  315  A    between atoms: _772  and  _773
REMARK  316  A    between atoms: _778  and  _780
REMARK  317  A    between atoms: _780  and  _781
REMARK  318  A    between atoms: _780  and  _783
REMARK  319  A    between atoms: _783  and  _784
REMARK  320  A    between atoms: _784  and  _785
REMARK                            x       y       z     vdW  Elec       q    Type
REMARK                         _______ _______ _______ _____ _____    ______ ____
ROOT
ATOM      1  O   HOH     1      19.414  46.082  17.787  0.00  0.00    +0.000 OA
ENDROOT
TORSDOF 0
REMARK  Name = ../refined-set-2016/3drf/3drf_pocket.pdb
REMARK  320 active torsions:
REMARK  status: ('A' for Active; 'I' for Inactive)
REMARK    1  A    between atoms: _1  and  _3
REMARK    2  A    between atoms: _3  and  _4
REMARK    3  A    between atoms: _3  and  _6
REMARK    4  A    between atoms: _6  and  _7
REMARK    5  A    between atoms: _12  and  _13
REMARK    6  A    between atoms: _15  and  _17
REMARK    7  A    between atoms: _17  and  _18
REMARK    8  A    between atoms: _17  and  _20
REMARK    9  A    between atoms: _20  and  _21
REMARK   10  A    between atoms: _21  and  _22
REMARK   11  A    between atoms: _27  and  _29
REMARK   12  A    between atoms: _29  and  _30
REMARK   13  A    between atoms: _29  and  _32
REMARK   14  A    between atoms: _32  and  _33
REMARK   15  A    between atoms: _35  and  _37
REMARK   16  A    between atoms: _37  and  _38
REMARK   17  A    between atoms: _37  and  _40
REMARK   18  A    between atoms: _40  and  _41
REMARK   19  A    between atoms: _44  and  _46
REMARK   20  A    between atoms: _46  and  _47
REMARK   21  A    between atoms: _46  and  _49
REMARK   22  A    between atoms: _49  and  _50
REMARK   23  A    between atoms: _52  and  _54
REMARK   24  A    between atoms: _54  and  _55
REMARK   25  A    between atoms: _54  and  _57
REMARK   26  A    between atoms: _57  and  _58
REMARK   27  A    between atoms: _60  and  _62
REMARK   28  A    between atoms: _62  and  _63
REMARK   29  A    between atoms: _65  and  _67
REMARK   30  A    between atoms: _67  and  _68
REMARK   31  A    between atoms: _67  and  _70
REMARK   32  A    between atoms: _70  and  _71
REMARK   33  A    between atoms: _73  and  _75
REMARK   34  A    between atoms: _75  and  _76
REMARK   35  A    between atoms: _75  and  _78
REMARK   36  A    between atoms: _78  and  _79
REMARK   37  A    between atoms: _84  and  _86
REMARK   38  A    between atoms: _86  and  _87
REMARK   39  A    between atoms: _86  and  _89
REMARK   40  A    between atoms: _89  and  _90
REMARK   41  A    between atoms: _93  and  _95
REMARK   42  A    between atoms: _95  and  _96
REMARK   43  A    between atoms: _99  and  _101
REMARK   44  A    between atoms: _101  and  _102
REMARK   45  A    between atoms: _101  and  _104
REMARK   46  A    between atoms: _104  and  _105
REMARK   47  A    between atoms: _108  and  _110
REMARK   48  A    between atoms: _110  and  _111
REMARK   49  A    between atoms: _110  and  _113
REMARK   50  A    between atoms: _113  and  _114
REMARK   51  A    between atoms: _120  and  _122
REMARK   52  A    between atoms: _122  and  _123
REMARK   53  A    between atoms: _126  and  _128
REMARK   54  A    between atoms: _128  and  _129
REMARK   55  A    between atoms: _128  and  _131
REMARK   56  A    between atoms: _131  and  _132
REMARK   57  A    between atoms: _135  and  _137
REMARK   58  A    between atoms: _137  and  _138
REMARK   59  A    between atoms: _140  and  _142
REMARK   60  A    between atoms: _142  and  _143
REMARK   61  A    between atoms: _142  and  _145
REMARK   62  A    between atoms: _145  and  _146
REMARK   63  A    between atoms: _146  and  _147
REMARK   64  A    between atoms: _152  and  _154
REMARK   65  A    between atoms: _154  and  _155
REMARK   66  A    between atoms: _157  and  _159
REMARK   67  A    between atoms: _159  and  _160
REMARK   68  A    between atoms: _159  and  _162
REMARK   69  A    between atoms: _162  and  _163
REMARK   70  A    between atoms: _166  and  _168
REMARK   71  A    between atoms: _168  and  _169
REMARK   72  A    between atoms: _168  and  _171
REMARK   73  A    between atoms: _171  and  _172
REMARK   74  A    between atoms: _178  and  _180
REMARK   75  A    between atoms: _180  and  _181
REMARK   76  A    between atoms: _180  and  _183
REMARK   77  A    between atoms: _183  and  _184
REMARK   78  A    between atoms: _187  and  _189
REMARK   79  A    between atoms: _189  and  _190
REMARK   80  A    between atoms: _189  and  _192
REMARK   81  A    between atoms: _192  and  _193
REMARK   82  A    between atoms: _199  and  _201
REMARK   83  A    between atoms: _201  and  _202
REMARK   84  A    between atoms: _201  and  _204
REMARK   85  A    between atoms: _204  and  _205
REMARK   86  A    between atoms: _211  and  _213
REMARK   87  A    between atoms: _213  and  _214
REMARK   88  A    between atoms: _213  and  _216
REMARK   89  A    between atoms: _216  and  _217
REMARK   90  A    between atoms: _220  and  _222
REMARK   91  A    between atoms: _222  and  _223
REMARK   92  A    between atoms: _222  and  _225
REMARK   93  A    between atoms: _225  and  _226
REMARK   94  A    between atoms: _229  and  _231
REMARK   95  A    between atoms: _231  and  _232
REMARK   96  A    between atoms: _231  and  _234
REMARK   97  A    between atoms: _234  and  _235
REMARK   98  A    between atoms: _235  and  _236
REMARK   99  A    between atoms: _236  and  _237
REMARK  100  A    between atoms: _246  and  _248
REMARK  101  A    between atoms: _248  and  _249
REMARK  102  A    between atoms: _248  and  _251
REMARK  103  A    between atoms: _251  and  _252
REMARK  104  A    between atoms: _255  and  _257
REMARK  105  A    between atoms: _257  and  _258
REMARK  106  A    between atoms: _257  and  _260
REMARK  107  A    between atoms: _260  and  _261
REMARK  108  A    between atoms: _263  and  _265
REMARK  109  A    between atoms: _265  and  _266
REMARK  110  A    between atoms: _265  and  _268
REMARK  111  A    between atoms: _268  and  _269
REMARK  112  A    between atoms: _269  and  _270
REMARK  113  A    between atoms: _275  and  _277
REMARK  114  A    between atoms: _277  and  _278
REMARK  115  A    between atoms: _277  and  _280
REMARK  116  A    between atoms: _280  and  _281
REMARK  117  A    between atoms: _283  and  _285
REMARK  118  A    between atoms: _285  and  _286
REMARK  119  A    between atoms: _288  and  _290
REMARK  120  A    between atoms: _290  and  _291
REMARK  121  A    between atoms: _290  and  _293
REMARK  122  A    between atoms: _293  and  _294
REMARK  123  A    between atoms: _299  and  _301
REMARK  124  A    between atoms: _301  and  _302
REMARK  125  A    between atoms: _304  and  _306
REMARK  126  A    between atoms: _306  and  _307
REMARK  127  A    between atoms: _306  and  _309
REMARK  128  A    between atoms: _309  and  _310
REMARK  129  A    between atoms: _315  and  _316
REMARK  130  A    between atoms: _318  and  _320
REMARK  131  A    between atoms: _320  and  _321
REMARK  132  A    between atoms: _320  and  _323
REMARK  133  A    between atoms: _323  and  _324
REMARK  134  A    between atoms: _330  and  _332
REMARK  135  A    between atoms: _332  and  _333
REMARK  136  A    between atoms: _332  and  _335
REMARK  137  A    between atoms: _335  and  _336
REMARK  138  A    between atoms: _339  and  _341
REMARK  139  A    between atoms: _341  and  _342
REMARK  140  A    between atoms: _341  and  _344
REMARK  141  A    between atoms: _344  and  _345
REMARK  142  A    between atoms: _345  and  _346
REMARK  143  A    between atoms: _349  and  _351
REMARK  144  A    between atoms: _351  and  _352
REMARK  145  A    between atoms: _351  and  _354
REMARK  146  A    between atoms: _354  and  _355
REMARK  147  A    between atoms: _358  and  _360
REMARK  148  A    between atoms: _360  and  _361
REMARK  149  A    between atoms: _360  and  _363
REMARK  150  A    between atoms: _363  and  _364
REMARK  151  A    between atoms: _367  and  _369
REMARK  152  A    between atoms: _369  and  _370
REMARK  153  A    between atoms: _372  and  _374
REMARK  154  A    between atoms: _374  and  _375
REMARK  155  A    between atoms: _374  and  _377
REMARK  156  A    between atoms: _380  and  _382
REMARK  157  A    between atoms: _382  and  _383
REMARK  158  A    between atoms: _382  and  _385
REMARK  159  A    between atoms: _385  and  _386
REMARK  160  A    between atoms: _388  and  _390
REMARK  161  A    between atoms: _390  and  _391
REMARK  162  A    between atoms: _390  and  _393
REMARK  163  A    between atoms: _393  and  _394
REMARK  164  A    between atoms: _394  and  _395
REMARK  165  A    between atoms: _397  and  _399
REMARK  166  A    between atoms: _399  and  _400
REMARK  167  A    between atoms: _399  and  _402
REMARK  168  A    between atoms: _402  and  _403
REMARK  169  A    between atoms: _408  and  _409
REMARK  170  A    between atoms: _411  and  _413
REMARK  171  A    between atoms: _413  and  _414
REMARK  172  A    between atoms: _413  and  _416
REMARK  173  A    between atoms: _416  and  _417
REMARK  174  A    between atoms: _420  and  _422
REMARK  175  A    between atoms: _422  and  _423
REMARK  176  A    between atoms: _422  and  _425
REMARK  177  A    between atoms: _425  and  _426
REMARK  178  A    between atoms: _428  and  _430
REMARK  179  A    between atoms: _430  and  _431
REMARK  180  A    between atoms: _430  and  _433
REMARK  181  A    between atoms: _433  and  _434
REMARK  182  A    between atoms: _437  and  _439
REMARK  183  A    between atoms: _439  and  _440
REMARK  184  A    between atoms: _439  and  _442
REMARK  185  A    between atoms: _442  and  _443
REMARK  186  A    between atoms: _448  and  _449
REMARK  187  A    between atoms: _451  and  _453
REMARK  188  A    between atoms: _453  and  _454
REMARK  189  A    between atoms: _453  and  _456
REMARK  190  A    between atoms: _456  and  _457
REMARK  191  A    between atoms: _459  and  _461
REMARK  192  A    between atoms: _461  and  _462
REMARK  193  A    between atoms: _461  and  _464
REMARK  194  A    between atoms: _464  and  _465
REMARK  195  A    between atoms: _471  and  _473
REMARK  196  A    between atoms: _473  and  _474
REMARK  197  A    between atoms: _473  and  _476
REMARK  198  A    between atoms: _476  and  _477
REMARK  199  A    between atoms: _477  and  _478
REMARK  200  A    between atoms: _478  and  _479
REMARK  201  A    between atoms: _488  and  _490
REMARK  202  A    between atoms: _490  and  _491
REMARK  203  A    between atoms: _490  and  _493
REMARK  204  A    between atoms: _496  and  _498
REMARK  205  A    between atoms: _498  and  _499
REMARK  206  A    between atoms: _501  and  _503
REMARK  207  A    between atoms: _503  and  _504
REMARK  208  A    between atoms: _503  and  _506
REMARK  209  A    between atoms: _506  and  _507
REMARK  210  A    between atoms: _510  and  _512
REMARK  211  A    between atoms: _512  and  _513
REMARK  212  A    between atoms: _512  and  _515
REMARK  213  A    between atoms: _515  and  _516
REMARK  214  A    between atoms: _516  and  _517
REMARK  215  A    between atoms: _519  and  _521
REMARK  216  A    between atoms: _521  and  _522
REMARK  217  A    between atoms: _521  and  _524
REMARK  218  A    between atoms: _524  and  _525
REMARK  219  A    between atoms: _531  and  _533
REMARK  220  A    between atoms: _533  and  _534
REMARK  221  A    between atoms: _533  and  _536
REMARK  222  A    between atoms: _536  and  _537
REMARK  223  A    between atoms: _542  and  _544
REMARK  224  A    between atoms: _544  and  _545
REMARK  225  A    between atoms: _544  and  _547
REMARK  226  A    between atoms: _547  and  _548
REMARK  227  A    between atoms: _558  and  _560
REMARK  228  A    between atoms: _560  and  _561
REMARK  229  A    between atoms: _560  and  _563
REMARK  230  A    between atoms: _566  and  _568
REMARK  231  A    between atoms: _568  and  _569
REMARK  232  A    between atoms: _568  and  _571
REMARK  233  A    between atoms: _571  and  _572
REMARK  234  A    between atoms: _575  and  _577
REMARK  235  A    between atoms: _577  and  _578
REMARK  236  A    between atoms: _577  and  _580
REMARK  237  A    between atoms: _580  and  _581
REMARK  238  A    between atoms: _581  and  _582
REMARK  239  A    between atoms: _584  and  _586
REMARK  240  A    between atoms: _586  and  _587
REMARK  241  A    between atoms: _586  and  _589
REMARK  242  A    between atoms: _589  and  _590
REMARK  243  A    between atoms: _593  and  _595
REMARK  244  A    between atoms: _595  and  _596
REMARK  245  A    between atoms: _595  and  _598
REMARK  246  A    between atoms: _598  and  _599
REMARK  247  A    between atoms: _602  and  _604
REMARK  248  A    between atoms: _604  and  _605
REMARK  249  A    between atoms: _607  and  _609
REMARK  250  A    between atoms: _609  and  _610
REMARK  251  A    between atoms: _609  and  _612
REMARK  252  A    between atoms: _612  and  _613
REMARK  253  A    between atoms: _615  and  _617
REMARK  254  A    between atoms: _617  and  _618
REMARK  255  A    between atoms: _617  and  _620
REMARK  256  A    between atoms: _620  and  _621
REMARK  257  A    between atoms: _631  and  _633
REMARK  258  A    between atoms: _633  and  _634
REMARK  259  A    between atoms: _633  and  _636
REMARK  260  A    between atoms: _636  and  _637
REMARK  261  A    between atoms: _639  and  _641
REMARK  262  A    between atoms: _641  and  _642
REMARK  263  A    between atoms: _641  and  _644
REMARK  264  A    between atoms: _644  and  _645
REMARK  265  A    between atoms: _648  and  _650
REMARK  266  A    between atoms: _650  and  _651
REMARK  267  A    between atoms: _654  and  _656
REMARK  268  A    between atoms: _656  and  _657
REMARK  269  A    between atoms: _656  and  _659
REMARK  270  A    between atoms: _659  and  _660
REMARK  271  A    between atoms: _662  and  _664
REMARK  272  A    between atoms: _664  and  _665
REMARK  273  A    between atoms: _664  and  _667
REMARK  274  A    between atoms: _667  and  _668
REMARK  275  A    between atoms: _668  and  _669
REMARK  276  A    between atoms: _673  and  _674
REMARK  277  A    between atoms: _679  and  _681
REMARK  278  A    between atoms: _681  and  _682
REMARK  279  A    between atoms: _681  and  _684
REMARK  280  A    between atoms: _684  and  _685
REMARK  281  A    between atoms: _687  and  _689
REMARK  282  A    between atoms: _689  and  _690
REMARK  283  A    between atoms: _689  and  _692
REMARK  284  A    between atoms: _692  and  _693
REMARK  285  A    between atoms: _693  and  _694
REMARK  286  A    between atoms: _699  and  _701
REMARK  287  A    between atoms: _701  and  _702
REMARK  288  A    between atoms: _701  and  _704
REMARK  289  A    between atoms: _704  and  _705
REMARK  290  A    between atoms: _705  and  _706
REMARK  291  A    between atoms: _711  and  _713
REMARK  292  A    between atoms: _713  and  _714
REMARK  293  A    between atoms: _713  and  _716
REMARK  294  A    between atoms: _716  and  _717
REMARK  295  A    between atoms: _720  and  _722
REMARK  296  A    between atoms: _722  and  _723
REMARK  297  A    between atoms: _722  and  _725
REMARK  298  A    between atoms: _725  and  _726
REMARK  299  A    between atoms: _729  and  _731
REMARK  300  A    between atoms: _731  and  _732
REMARK  301  A    between atoms: _731  and  _734
REMARK  302  A    between atoms: _734  and  _735
REMARK  303  A    between atoms: _741  and  _743
REMARK  304  A    between atoms: _743  and  _744
REMARK  305  A    between atoms: _743  and  _746
REMARK  306  A    between atoms: _746  and  _747
REMARK  307  A    between atoms: _752  and  _753
REMARK  308  A    between atoms: _755  and  _757
REMARK  309  A    between atoms: _757  and  _758
REMARK  310  A    between atoms: _757  and  _760
REMARK  311  A    between atoms: _760  and  _761
REMARK  312  A    between atoms: _767  and  _769
REMARK  313  A    between atoms: _769  and  _770
REMARK  314  A    between atoms: _769  and  _772
REMARK  315  A    between atoms: _772  and  _773
REMARK  316  A    between atoms: _778  and  _780
REMARK  317  A    between atoms: _780  and  _781
REMARK  318  A    between atoms: _780  and  _783
REMARK  319  A    between atoms: _783  and  _784
REMARK  320  A    between atoms: _784  and  _785
REMARK                            x       y       z     vdW  Elec       q    Type
REMARK                         _______ _______ _______ _____ _____    ______ ____
ROOT
ATOM      1  O   HOH     1      -1.797  53.513  29.196  0.00  0.00    +0.000 OA
ENDROOT
TORSDOF 0
REMARK  Name = ../refined-set-2016/3drf/3drf_pocket.pdb
REMARK  320 active torsions:
REMARK  status: ('A' for Active; 'I' for Inactive)
REMARK    1  A    between atoms: _1  and  _3
REMARK    2  A    between atoms: _3  and  _4
REMARK    3  A    between atoms: _3  and  _6
REMARK    4  A    between atoms: _6  and  _7
REMARK    5  A    between atoms: _12  and  _13
REMARK    6  A    between atoms: _15  and  _17
REMARK    7  A    between atoms: _17  and  _18
REMARK    8  A    between atoms: _17  and  _20
REMARK    9  A    between atoms: _20  and  _21
REMARK   10  A    between atoms: _21  and  _22
REMARK   11  A    between atoms: _27  and  _29
REMARK   12  A    between atoms: _29  and  _30
REMARK   13  A    between atoms: _29  and  _32
REMARK   14  A    between atoms: _32  and  _33
REMARK   15  A    between atoms: _35  and  _37
REMARK   16  A    between atoms: _37  and  _38
REMARK   17  A    between atoms: _37  and  _40
REMARK   18  A    between atoms: _40  and  _41
REMARK   19  A    between atoms: _44  and  _46
REMARK   20  A    between atoms: _46  and  _47
REMARK   21  A    between atoms: _46  and  _49
REMARK   22  A    between atoms: _49  and  _50
REMARK   23  A    between atoms: _52  and  _54
REMARK   24  A    between atoms: _54  and  _55
REMARK   25  A    between atoms: _54  and  _57
REMARK   26  A    between atoms: _57  and  _58
REMARK   27  A    between atoms: _60  and  _62
REMARK   28  A    between atoms: _62  and  _63
REMARK   29  A    between atoms: _65  and  _67
REMARK   30  A    between atoms: _67  and  _68
REMARK   31  A    between atoms: _67  and  _70
REMARK   32  A    between atoms: _70  and  _71
REMARK   33  A    between atoms: _73  and  _75
REMARK   34  A    between atoms: _75  and  _76
REMARK   35  A    between atoms: _75  and  _78
REMARK   36  A    between atoms: _78  and  _79
REMARK   37  A    between atoms: _84  and  _86
REMARK   38  A    between atoms: _86  and  _87
REMARK   39  A    between atoms: _86  and  _89
REMARK   40  A    between atoms: _89  and  _90
REMARK   41  A    between atoms: _93  and  _95
REMARK   42  A    between atoms: _95  and  _96
REMARK   43  A    between atoms: _99  and  _101
REMARK   44  A    between atoms: _101  and  _102
REMARK   45  A    between atoms: _101  and  _104
REMARK   46  A    between atoms: _104  and  _105
REMARK   47  A    between atoms: _108  and  _110
REMARK   48  A    between atoms: _110  and  _111
REMARK   49  A    between atoms: _110  and  _113
REMARK   50  A    between atoms: _113  and  _114
REMARK   51  A    between atoms: _120  and  _122
REMARK   52  A    between atoms: _122  and  _123
REMARK   53  A    between atoms: _126  and  _128
REMARK   54  A    between atoms: _128  and  _129
REMARK   55  A    between atoms: _128  and  _131
REMARK   56  A    between atoms: _131  and  _132
REMARK   57  A    between atoms: _135  and  _137
REMARK   58  A    between atoms: _137  and  _138
REMARK   59  A    between atoms: _140  and  _142
REMARK   60  A    between atoms: _142  and  _143
REMARK   61  A    between atoms: _142  and  _145
REMARK   62  A    between atoms: _145  and  _146
REMARK   63  A    between atoms: _146  and  _147
REMARK   64  A    between atoms: _152  and  _154
REMARK   65  A    between atoms: _154  and  _155
REMARK   66  A    between atoms: _157  and  _159
REMARK   67  A    between atoms: _159  and  _160
REMARK   68  A    between atoms: _159  and  _162
REMARK   69  A    between atoms: _162  and  _163
REMARK   70  A    between atoms: _166  and  _168
REMARK   71  A    between atoms: _168  and  _169
REMARK   72  A    between atoms: _168  and  _171
REMARK   73  A    between atoms: _171  and  _172
REMARK   74  A    between atoms: _178  and  _180
REMARK   75  A    between atoms: _180  and  _181
REMARK   76  A    between atoms: _180  and  _183
REMARK   77  A    between atoms: _183  and  _184
REMARK   78  A    between atoms: _187  and  _189
REMARK   79  A    between atoms: _189  and  _190
REMARK   80  A    between atoms: _189  and  _192
REMARK   81  A    between atoms: _192  and  _193
REMARK   82  A    between atoms: _199  and  _201
REMARK   83  A    between atoms: _201  and  _202
REMARK   84  A    between atoms: _201  and  _204
REMARK   85  A    between atoms: _204  and  _205
REMARK   86  A    between atoms: _211  and  _213
REMARK   87  A    between atoms: _213  and  _214
REMARK   88  A    between atoms: _213  and  _216
REMARK   89  A    between atoms: _216  and  _217
REMARK   90  A    between atoms: _220  and  _222
REMARK   91  A    between atoms: _222  and  _223
REMARK   92  A    between atoms: _222  and  _225
REMARK   93  A    between atoms: _225  and  _226
REMARK   94  A    between atoms: _229  and  _231
REMARK   95  A    between atoms: _231  and  _232
REMARK   96  A    between atoms: _231  and  _234
REMARK   97  A    between atoms: _234  and  _235
REMARK   98  A    between atoms: _235  and  _236
REMARK   99  A    between atoms: _236  and  _237
REMARK  100  A    between atoms: _246  and  _248
REMARK  101  A    between atoms: _248  and  _249
REMARK  102  A    between atoms: _248  and  _251
REMARK  103  A    between atoms: _251  and  _252
REMARK  104  A    between atoms: _255  and  _257
REMARK  105  A    between atoms: _257  and  _258
REMARK  106  A    between atoms: _257  and  _260
REMARK  107  A    between atoms: _260  and  _261
REMARK  108  A    between atoms: _263  and  _265
REMARK  109  A    between atoms: _265  and  _266
REMARK  110  A    between atoms: _265  and  _268
REMARK  111  A    between atoms: _268  and  _269
REMARK  112  A    between atoms: _269  and  _270
REMARK  113  A    between atoms: _275  and  _277
REMARK  114  A    between atoms: _277  and  _278
REMARK  115  A    between atoms: _277  and  _280
REMARK  116  A    between atoms: _280  and  _281
REMARK  117  A    between atoms: _283  and  _285
REMARK  118  A    between atoms: _285  and  _286
REMARK  119  A    between atoms: _288  and  _290
REMARK  120  A    between atoms: _290  and  _291
REMARK  121  A    between atoms: _290  and  _293
REMARK  122  A    between atoms: _293  and  _294
REMARK  123  A    between atoms: _299  and  _301
REMARK  124  A    between atoms: _301  and  _302
REMARK  125  A    between atoms: _304  and  _306
REMARK  126  A    between atoms: _306  and  _307
REMARK  127  A    between atoms: _306  and  _309
REMARK  128  A    between atoms: _309  and  _310
REMARK  129  A    between atoms: _315  and  _316
REMARK  130  A    between atoms: _318  and  _320
REMARK  131  A    between atoms: _320  and  _321
REMARK  132  A    between atoms: _320  and  _323
REMARK  133  A    between atoms: _323  and  _324
REMARK  134  A    between atoms: _330  and  _332
REMARK  135  A    between atoms: _332  and  _333
REMARK  136  A    between atoms: _332  and  _335
REMARK  137  A    between atoms: _335  and  _336
REMARK  138  A    between atoms: _339  and  _341
REMARK  139  A    between atoms: _341  and  _342
REMARK  140  A    between atoms: _341  and  _344
REMARK  141  A    between atoms: _344  and  _345
REMARK  142  A    between atoms: _345  and  _346
REMARK  143  A    between atoms: _349  and  _351
REMARK  144  A    between atoms: _351  and  _352
REMARK  145  A    between atoms: _351  and  _354
REMARK  146  A    between atoms: _354  and  _355
REMARK  147  A    between atoms: _358  and  _360
REMARK  148  A    between atoms: _360  and  _361
REMARK  149  A    between atoms: _360  and  _363
REMARK  150  A    between atoms: _363  and  _364
REMARK  151  A    between atoms: _367  and  _369
REMARK  152  A    between atoms: _369  and  _370
REMARK  153  A    between atoms: _372  and  _374
REMARK  154  A    between atoms: _374  and  _375
REMARK  155  A    between atoms: _374  and  _377
REMARK  156  A    between atoms: _380  and  _382
REMARK  157  A    between atoms: _382  and  _383
REMARK  158  A    between atoms: _382  and  _385
REMARK  159  A    between atoms: _385  and  _386
REMARK  160  A    between atoms: _388  and  _390
REMARK  161  A    between atoms: _390  and  _391
REMARK  162  A    between atoms: _390  and  _393
REMARK  163  A    between atoms: _393  and  _394
REMARK  164  A    between atoms: _394  and  _395
REMARK  165  A    between atoms: _397  and  _399
REMARK  166  A    between atoms: _399  and  _400
REMARK  167  A    between atoms: _399  and  _402
REMARK  168  A    between atoms: _402  and  _403
REMARK  169  A    between atoms: _408  and  _409
REMARK  170  A    between atoms: _411  and  _413
REMARK  171  A    between atoms: _413  and  _414
REMARK  172  A    between atoms: _413  and  _416
REMARK  173  A    between atoms: _416  and  _417
REMARK  174  A    between atoms: _420  and  _422
REMARK  175  A    between atoms: _422  and  _423
REMARK  176  A    between atoms: _422  and  _425
REMARK  177  A    between atoms: _425  and  _426
REMARK  178  A    between atoms: _428  and  _430
REMARK  179  A    between atoms: _430  and  _431
REMARK  180  A    between atoms: _430  and  _433
REMARK  181  A    between atoms: _433  and  _434
REMARK  182  A    between atoms: _437  and  _439
REMARK  183  A    between atoms: _439  and  _440
REMARK  184  A    between atoms: _439  and  _442
REMARK  185  A    between atoms: _442  and  _443
REMARK  186  A    between atoms: _448  and  _449
REMARK  187  A    between atoms: _451  and  _453
REMARK  188  A    between atoms: _453  and  _454
REMARK  189  A    between atoms: _453  and  _456
REMARK  190  A    between atoms: _456  and  _457
REMARK  191  A    between atoms: _459  and  _461
REMARK  192  A    between atoms: _461  and  _462
REMARK  193  A    between atoms: _461  and  _464
REMARK  194  A    between atoms: _464  and  _465
REMARK  195  A    between atoms: _471  and  _473
REMARK  196  A    between atoms: _473  and  _474
REMARK  197  A    between atoms: _473  and  _476
REMARK  198  A    between atoms: _476  and  _477
REMARK  199  A    between atoms: _477  and  _478
REMARK  200  A    between atoms: _478  and  _479
REMARK  201  A    between atoms: _488  and  _490
REMARK  202  A    between atoms: _490  and  _491
REMARK  203  A    between atoms: _490  and  _493
REMARK  204  A    between atoms: _496  and  _498
REMARK  205  A    between atoms: _498  and  _499
REMARK  206  A    between atoms: _501  and  _503
REMARK  207  A    between atoms: _503  and  _504
REMARK  208  A    between atoms: _503  and  _506
REMARK  209  A    between atoms: _506  and  _507
REMARK  210  A    between atoms: _510  and  _512
REMARK  211  A    between atoms: _512  and  _513
REMARK  212  A    between atoms: _512  and  _515
REMARK  213  A    between atoms: _515  and  _516
REMARK  214  A    between atoms: _516  and  _517
REMARK  215  A    between atoms: _519  and  _521
REMARK  216  A    between atoms: _521  and  _522
REMARK  217  A    between atoms: _521  and  _524
REMARK  218  A    between atoms: _524  and  _525
REMARK  219  A    between atoms: _531  and  _533
REMARK  220  A    between atoms: _533  and  _534
REMARK  221  A    between atoms: _533  and  _536
REMARK  222  A    between atoms: _536  and  _537
REMARK  223  A    between atoms: _542  and  _544
REMARK  224  A    between atoms: _544  and  _545
REMARK  225  A    between atoms: _544  and  _547
REMARK  226  A    between atoms: _547  and  _548
REMARK  227  A    between atoms: _558  and  _560
REMARK  228  A    between atoms: _560  and  _561
REMARK  229  A    between atoms: _560  and  _563
REMARK  230  A    between atoms: _566  and  _568
REMARK  231  A    between atoms: _568  and  _569
REMARK  232  A    between atoms: _568  and  _571
REMARK  233  A    between atoms: _571  and  _572
REMARK  234  A    between atoms: _575  and  _577
REMARK  235  A    between atoms: _577  and  _578
REMARK  236  A    between atoms: _577  and  _580
REMARK  237  A    between atoms: _580  and  _581
REMARK  238  A    between atoms: _581  and  _582
REMARK  239  A    between atoms: _584  and  _586
REMARK  240  A    between atoms: _586  and  _587
REMARK  241  A    between atoms: _586  and  _589
REMARK  242  A    between atoms: _589  and  _590
REMARK  243  A    between atoms: _593  and  _595
REMARK  244  A    between atoms: _595  and  _596
REMARK  245  A    between atoms: _595  and  _598
REMARK  246  A    between atoms: _598  and  _599
REMARK  247  A    between atoms: _602  and  _604
REMARK  248  A    between atoms: _604  and  _605
REMARK  249  A    between atoms: _607  and  _609
REMARK  250  A    between atoms: _609  and  _610
REMARK  251  A    between atoms: _609  and  _612
REMARK  252  A    between atoms: _612  and  _613
REMARK  253  A    between atoms: _615  and  _617
REMARK  254  A    between atoms: _617  and  _618
REMARK  255  A    between atoms: _617  and  _620
REMARK  256  A    between atoms: _620  and  _621
REMARK  257  A    between atoms: _631  and  _633
REMARK  258  A    between atoms: _633  and  _634
REMARK  259  A    between atoms: _633  and  _636
REMARK  260  A    between atoms: _636  and  _637
REMARK  261  A    between atoms: _639  and  _641
REMARK  262  A    between atoms: _641  and  _642
REMARK  263  A    between atoms: _641  and  _644
REMARK  264  A    between atoms: _644  and  _645
REMARK  265  A    between atoms: _648  and  _650
REMARK  266  A    between atoms: _650  and  _651
REMARK  267  A    between atoms: _654  and  _656
REMARK  268  A    between atoms: _656  and  _657
REMARK  269  A    between atoms: _656  and  _659
REMARK  270  A    between atoms: _659  and  _660
REMARK  271  A    between atoms: _662  and  _664
REMARK  272  A    between atoms: _664  and  _665
REMARK  273  A    between atoms: _664  and  _667
REMARK  274  A    between atoms: _667  and  _668
REMARK  275  A    between atoms: _668  and  _669
REMARK  276  A    between atoms: _673  and  _674
REMARK  277  A    between atoms: _679  and  _681
REMARK  278  A    between atoms: _681  and  _682
REMARK  279  A    between atoms: _681  and  _684
REMARK  280  A    between atoms: _684  and  _685
REMARK  281  A    between atoms: _687  and  _689
REMARK  282  A    between atoms: _689  and  _690
REMARK  283  A    between atoms: _689  and  _692
REMARK  284  A    between atoms: _692  and  _693
REMARK  285  A    between atoms: _693  and  _694
REMARK  286  A    between atoms: _699  and  _701
REMARK  287  A    between atoms: _701  and  _702
REMARK  288  A    between atoms: _701  and  _704
REMARK  289  A    between atoms: _704  and  _705
REMARK  290  A    between atoms: _705  and  _706
REMARK  291  A    between atoms: _711  and  _713
REMARK  292  A    between atoms: _713  and  _714
REMARK  293  A    between atoms: _713  and  _716
REMARK  294  A    between atoms: _716  and  _717
REMARK  295  A    between atoms: _720  and  _722
REMARK  296  A    between atoms: _722  and  _723
REMARK  297  A    between atoms: _722  and  _725
REMARK  298  A    between atoms: _725  and  _726
REMARK  299  A    between atoms: _729  and  _731
REMARK  300  A    between atoms: _731  and  _732
REMARK  301  A    between atoms: _731  and  _734
REMARK  302  A    between atoms: _734  and  _735
REMARK  303  A    between atoms: _741  and  _743
REMARK  304  A    between atoms: _743  and  _744
REMARK  305  A    between atoms: _743  and  _746
REMARK  306  A    between atoms: _746  and  _747
REMARK  307  A    between atoms: _752  and  _753
REMARK  308  A    between atoms: _755  and  _757
REMARK  309  A    between atoms: _757  and  _758
REMARK  310  A    between atoms: _757  and  _760
REMARK  311  A    between atoms: _760  and  _761
REMARK  312  A    between atoms: _767  and  _769
REMARK  313  A    between atoms: _769  and  _770
REMARK  314  A    between atoms: _769  and  _772
REMARK  315  A    between atoms: _772  and  _773
REMARK  316  A    between atoms: _778  and  _780
REMARK  317  A    between atoms: _780  and  _781
REMARK  318  A    between atoms: _780  and  _783
REMARK  319  A    between atoms: _783  and  _784
REMARK  320  A    between atoms: _784  and  _785
REMARK                            x       y       z     vdW  Elec       q    Type
REMARK                         _______ _______ _______ _____ _____    ______ ____
ROOT
ATOM      1  O   HOH     1      12.395  46.641  23.236  0.00  0.00    +0.000 OA
ENDROOT
TORSDOF 0
REMARK  Name = ../refined-set-2016/3drf/3drf_pocket.pdb
REMARK  320 active torsions:
REMARK  status: ('A' for Active; 'I' for Inactive)
REMARK    1  A    between atoms: _1  and  _3
REMARK    2  A    between atoms: _3  and  _4
REMARK    3  A    between atoms: _3  and  _6
REMARK    4  A    between atoms: _6  and  _7
REMARK    5  A    between atoms: _12  and  _13
REMARK    6  A    between atoms: _15  and  _17
REMARK    7  A    between atoms: _17  and  _18
REMARK    8  A    between atoms: _17  and  _20
REMARK    9  A    between atoms: _20  and  _21
REMARK   10  A    between atoms: _21  and  _22
REMARK   11  A    between atoms: _27  and  _29
REMARK   12  A    between atoms: _29  and  _30
REMARK   13  A    between atoms: _29  and  _32
REMARK   14  A    between atoms: _32  and  _33
REMARK   15  A    between atoms: _35  and  _37
REMARK   16  A    between atoms: _37  and  _38
REMARK   17  A    between atoms: _37  and  _40
REMARK   18  A    between atoms: _40  and  _41
REMARK   19  A    between atoms: _44  and  _46
REMARK   20  A    between atoms: _46  and  _47
REMARK   21  A    between atoms: _46  and  _49
REMARK   22  A    between atoms: _49  and  _50
REMARK   23  A    between atoms: _52  and  _54
REMARK   24  A    between atoms: _54  and  _55
REMARK   25  A    between atoms: _54  and  _57
REMARK   26  A    between atoms: _57  and  _58
REMARK   27  A    between atoms: _60  and  _62
REMARK   28  A    between atoms: _62  and  _63
REMARK   29  A    between atoms: _65  and  _67
REMARK   30  A    between atoms: _67  and  _68
REMARK   31  A    between atoms: _67  and  _70
REMARK   32  A    between atoms: _70  and  _71
REMARK   33  A    between atoms: _73  and  _75
REMARK   34  A    between atoms: _75  and  _76
REMARK   35  A    between atoms: _75  and  _78
REMARK   36  A    between atoms: _78  and  _79
REMARK   37  A    between atoms: _84  and  _86
REMARK   38  A    between atoms: _86  and  _87
REMARK   39  A    between atoms: _86  and  _89
REMARK   40  A    between atoms: _89  and  _90
REMARK   41  A    between atoms: _93  and  _95
REMARK   42  A    between atoms: _95  and  _96
REMARK   43  A    between atoms: _99  and  _101
REMARK   44  A    between atoms: _101  and  _102
REMARK   45  A    between atoms: _101  and  _104
REMARK   46  A    between atoms: _104  and  _105
REMARK   47  A    between atoms: _108  and  _110
REMARK   48  A    between atoms: _110  and  _111
REMARK   49  A    between atoms: _110  and  _113
REMARK   50  A    between atoms: _113  and  _114
REMARK   51  A    between atoms: _120  and  _122
REMARK   52  A    between atoms: _122  and  _123
REMARK   53  A    between atoms: _126  and  _128
REMARK   54  A    between atoms: _128  and  _129
REMARK   55  A    between atoms: _128  and  _131
REMARK   56  A    between atoms: _131  and  _132
REMARK   57  A    between atoms: _135  and  _137
REMARK   58  A    between atoms: _137  and  _138
REMARK   59  A    between atoms: _140  and  _142
REMARK   60  A    between atoms: _142  and  _143
REMARK   61  A    between atoms: _142  and  _145
REMARK   62  A    between atoms: _145  and  _146
REMARK   63  A    between atoms: _146  and  _147
REMARK   64  A    between atoms: _152  and  _154
REMARK   65  A    between atoms: _154  and  _155
REMARK   66  A    between atoms: _157  and  _159
REMARK   67  A    between atoms: _159  and  _160
REMARK   68  A    between atoms: _159  and  _162
REMARK   69  A    between atoms: _162  and  _163
REMARK   70  A    between atoms: _166  and  _168
REMARK   71  A    between atoms: _168  and  _169
REMARK   72  A    between atoms: _168  and  _171
REMARK   73  A    between atoms: _171  and  _172
REMARK   74  A    between atoms: _178  and  _180
REMARK   75  A    between atoms: _180  and  _181
REMARK   76  A    between atoms: _180  and  _183
REMARK   77  A    between atoms: _183  and  _184
REMARK   78  A    between atoms: _187  and  _189
REMARK   79  A    between atoms: _189  and  _190
REMARK   80  A    between atoms: _189  and  _192
REMARK   81  A    between atoms: _192  and  _193
REMARK   82  A    between atoms: _199  and  _201
REMARK   83  A    between atoms: _201  and  _202
REMARK   84  A    between atoms: _201  and  _204
REMARK   85  A    between atoms: _204  and  _205
REMARK   86  A    between atoms: _211  and  _213
REMARK   87  A    between atoms: _213  and  _214
REMARK   88  A    between atoms: _213  and  _216
REMARK   89  A    between atoms: _216  and  _217
REMARK   90  A    between atoms: _220  and  _222
REMARK   91  A    between atoms: _222  and  _223
REMARK   92  A    between atoms: _222  and  _225
REMARK   93  A    between atoms: _225  and  _226
REMARK   94  A    between atoms: _229  and  _231
REMARK   95  A    between atoms: _231  and  _232
REMARK   96  A    between atoms: _231  and  _234
REMARK   97  A    between atoms: _234  and  _235
REMARK   98  A    between atoms: _235  and  _236
REMARK   99  A    between atoms: _236  and  _237
REMARK  100  A    between atoms: _246  and  _248
REMARK  101  A    between atoms: _248  and  _249
REMARK  102  A    between atoms: _248  and  _251
REMARK  103  A    between atoms: _251  and  _252
REMARK  104  A    between atoms: _255  and  _257
REMARK  105  A    between atoms: _257  and  _258
REMARK  106  A    between atoms: _257  and  _260
REMARK  107  A    between atoms: _260  and  _261
REMARK  108  A    between atoms: _263  and  _265
REMARK  109  A    between atoms: _265  and  _266
REMARK  110  A    between atoms: _265  and  _268
REMARK  111  A    between atoms: _268  and  _269
REMARK  112  A    between atoms: _269  and  _270
REMARK  113  A    between atoms: _275  and  _277
REMARK  114  A    between atoms: _277  and  _278
REMARK  115  A    between atoms: _277  and  _280
REMARK  116  A    between atoms: _280  and  _281
REMARK  117  A    between atoms: _283  and  _285
REMARK  118  A    between atoms: _285  and  _286
REMARK  119  A    between atoms: _288  and  _290
REMARK  120  A    between atoms: _290  and  _291
REMARK  121  A    between atoms: _290  and  _293
REMARK  122  A    between atoms: _293  and  _294
REMARK  123  A    between atoms: _299  and  _301
REMARK  124  A    between atoms: _301  and  _302
REMARK  125  A    between atoms: _304  and  _306
REMARK  126  A    between atoms: _306  and  _307
REMARK  127  A    between atoms: _306  and  _309
REMARK  128  A    between atoms: _309  and  _310
REMARK  129  A    between atoms: _315  and  _316
REMARK  130  A    between atoms: _318  and  _320
REMARK  131  A    between atoms: _320  and  _321
REMARK  132  A    between atoms: _320  and  _323
REMARK  133  A    between atoms: _323  and  _324
REMARK  134  A    between atoms: _330  and  _332
REMARK  135  A    between atoms: _332  and  _333
REMARK  136  A    between atoms: _332  and  _335
REMARK  137  A    between atoms: _335  and  _336
REMARK  138  A    between atoms: _339  and  _341
REMARK  139  A    between atoms: _341  and  _342
REMARK  140  A    between atoms: _341  and  _344
REMARK  141  A    between atoms: _344  and  _345
REMARK  142  A    between atoms: _345  and  _346
REMARK  143  A    between atoms: _349  and  _351
REMARK  144  A    between atoms: _351  and  _352
REMARK  145  A    between atoms: _351  and  _354
REMARK  146  A    between atoms: _354  and  _355
REMARK  147  A    between atoms: _358  and  _360
REMARK  148  A    between atoms: _360  and  _361
REMARK  149  A    between atoms: _360  and  _363
REMARK  150  A    between atoms: _363  and  _364
REMARK  151  A    between atoms: _367  and  _369
REMARK  152  A    between atoms: _369  and  _370
REMARK  153  A    between atoms: _372  and  _374
REMARK  154  A    between atoms: _374  and  _375
REMARK  155  A    between atoms: _374  and  _377
REMARK  156  A    between atoms: _380  and  _382
REMARK  157  A    between atoms: _382  and  _383
REMARK  158  A    between atoms: _382  and  _385
REMARK  159  A    between atoms: _385  and  _386
REMARK  160  A    between atoms: _388  and  _390
REMARK  161  A    between atoms: _390  and  _391
REMARK  162  A    between atoms: _390  and  _393
REMARK  163  A    between atoms: _393  and  _394
REMARK  164  A    between atoms: _394  and  _395
REMARK  165  A    between atoms: _397  and  _399
REMARK  166  A    between atoms: _399  and  _400
REMARK  167  A    between atoms: _399  and  _402
REMARK  168  A    between atoms: _402  and  _403
REMARK  169  A    between atoms: _408  and  _409
REMARK  170  A    between atoms: _411  and  _413
REMARK  171  A    between atoms: _413  and  _414
REMARK  172  A    between atoms: _413  and  _416
REMARK  173  A    between atoms: _416  and  _417
REMARK  174  A    between atoms: _420  and  _422
REMARK  175  A    between atoms: _422  and  _423
REMARK  176  A    between atoms: _422  and  _425
REMARK  177  A    between atoms: _425  and  _426
REMARK  178  A    between atoms: _428  and  _430
REMARK  179  A    between atoms: _430  and  _431
REMARK  180  A    between atoms: _430  and  _433
REMARK  181  A    between atoms: _433  and  _434
REMARK  182  A    between atoms: _437  and  _439
REMARK  183  A    between atoms: _439  and  _440
REMARK  184  A    between atoms: _439  and  _442
REMARK  185  A    between atoms: _442  and  _443
REMARK  186  A    between atoms: _448  and  _449
REMARK  187  A    between atoms: _451  and  _453
REMARK  188  A    between atoms: _453  and  _454
REMARK  189  A    between atoms: _453  and  _456
REMARK  190  A    between atoms: _456  and  _457
REMARK  191  A    between atoms: _459  and  _461
REMARK  192  A    between atoms: _461  and  _462
REMARK  193  A    between atoms: _461  and  _464
REMARK  194  A    between atoms: _464  and  _465
REMARK  195  A    between atoms: _471  and  _473
REMARK  196  A    between atoms: _473  and  _474
REMARK  197  A    between atoms: _473  and  _476
REMARK  198  A    between atoms: _476  and  _477
REMARK  199  A    between atoms: _477  and  _478
REMARK  200  A    between atoms: _478  and  _479
REMARK  201  A    between atoms: _488  and  _490
REMARK  202  A    between atoms: _490  and  _491
REMARK  203  A    between atoms: _490  and  _493
REMARK  204  A    between atoms: _496  and  _498
REMARK  205  A    between atoms: _498  and  _499
REMARK  206  A    between atoms: _501  and  _503
REMARK  207  A    between atoms: _503  and  _504
REMARK  208  A    between atoms: _503  and  _506
REMARK  209  A    between atoms: _506  and  _507
REMARK  210  A    between atoms: _510  and  _512
REMARK  211  A    between atoms: _512  and  _513
REMARK  212  A    between atoms: _512  and  _515
REMARK  213  A    between atoms: _515  and  _516
REMARK  214  A    between atoms: _516  and  _517
REMARK  215  A    between atoms: _519  and  _521
REMARK  216  A    between atoms: _521  and  _522
REMARK  217  A    between atoms: _521  and  _524
REMARK  218  A    between atoms: _524  and  _525
REMARK  219  A    between atoms: _531  and  _533
REMARK  220  A    between atoms: _533  and  _534
REMARK  221  A    between atoms: _533  and  _536
REMARK  222  A    between atoms: _536  and  _537
REMARK  223  A    between atoms: _542  and  _544
REMARK  224  A    between atoms: _544  and  _545
REMARK  225  A    between atoms: _544  and  _547
REMARK  226  A    between atoms: _547  and  _548
REMARK  227  A    between atoms: _558  and  _560
REMARK  228  A    between atoms: _560  and  _561
REMARK  229  A    between atoms: _560  and  _563
REMARK  230  A    between atoms: _566  and  _568
REMARK  231  A    between atoms: _568  and  _569
REMARK  232  A    between atoms: _568  and  _571
REMARK  233  A    between atoms: _571  and  _572
REMARK  234  A    between atoms: _575  and  _577
REMARK  235  A    between atoms: _577  and  _578
REMARK  236  A    between atoms: _577  and  _580
REMARK  237  A    between atoms: _580  and  _581
REMARK  238  A    between atoms: _581  and  _582
REMARK  239  A    between atoms: _584  and  _586
REMARK  240  A    between atoms: _586  and  _587
REMARK  241  A    between atoms: _586  and  _589
REMARK  242  A    between atoms: _589  and  _590
REMARK  243  A    between atoms: _593  and  _595
REMARK  244  A    between atoms: _595  and  _596
REMARK  245  A    between atoms: _595  and  _598
REMARK  246  A    between atoms: _598  and  _599
REMARK  247  A    between atoms: _602  and  _604
REMARK  248  A    between atoms: _604  and  _605
REMARK  249  A    between atoms: _607  and  _609
REMARK  250  A    between atoms: _609  and  _610
REMARK  251  A    between atoms: _609  and  _612
REMARK  252  A    between atoms: _612  and  _613
REMARK  253  A    between atoms: _615  and  _617
REMARK  254  A    between atoms: _617  and  _618
REMARK  255  A    between atoms: _617  and  _620
REMARK  256  A    between atoms: _620  and  _621
REMARK  257  A    between atoms: _631  and  _633
REMARK  258  A    between atoms: _633  and  _634
REMARK  259  A    between atoms: _633  and  _636
REMARK  260  A    between atoms: _636  and  _637
REMARK  261  A    between atoms: _639  and  _641
REMARK  262  A    between atoms: _641  and  _642
REMARK  263  A    between atoms: _641  and  _644
REMARK  264  A    between atoms: _644  and  _645
REMARK  265  A    between atoms: _648  and  _650
REMARK  266  A    between atoms: _650  and  _651
REMARK  267  A    between atoms: _654  and  _656
REMARK  268  A    between atoms: _656  and  _657
REMARK  269  A    between atoms: _656  and  _659
REMARK  270  A    between atoms: _659  and  _660
REMARK  271  A    between atoms: _662  and  _664
REMARK  272  A    between atoms: _664  and  _665
REMARK  273  A    between atoms: _664  and  _667
REMARK  274  A    between atoms: _667  and  _668
REMARK  275  A    between atoms: _668  and  _669
REMARK  276  A    between atoms: _673  and  _674
REMARK  277  A    between atoms: _679  and  _681
REMARK  278  A    between atoms: _681  and  _682
REMARK  279  A    between atoms: _681  and  _684
REMARK  280  A    between atoms: _684  and  _685
REMARK  281  A    between atoms: _687  and  _689
REMARK  282  A    between atoms: _689  and  _690
REMARK  283  A    between atoms: _689  and  _692
REMARK  284  A    between atoms: _692  and  _693
REMARK  285  A    between atoms: _693  and  _694
REMARK  286  A    between atoms: _699  and  _701
REMARK  287  A    between atoms: _701  and  _702
REMARK  288  A    between atoms: _701  and  _704
REMARK  289  A    between atoms: _704  and  _705
REMARK  290  A    between atoms: _705  and  _706
REMARK  291  A    between atoms: _711  and  _713
REMARK  292  A    between atoms: _713  and  _714
REMARK  293  A    between atoms: _713  and  _716
REMARK  294  A    between atoms: _716  and  _717
REMARK  295  A    between atoms: _720  and  _722
REMARK  296  A    between atoms: _722  and  _723
REMARK  297  A    between atoms: _722  and  _725
REMARK  298  A    between atoms: _725  and  _726
REMARK  299  A    between atoms: _729  and  _731
REMARK  300  A    between atoms: _731  and  _732
REMARK  301  A    between atoms: _731  and  _734
REMARK  302  A    between atoms: _734  and  _735
REMARK  303  A    between atoms: _741  and  _743
REMARK  304  A    between atoms: _743  and  _744
REMARK  305  A    between atoms: _743  and  _746
REMARK  306  A    between atoms: _746  and  _747
REMARK  307  A    between atoms: _752  and  _753
REMARK  308  A    between atoms: _755  and  _757
REMARK  309  A    between atoms: _757  and  _758
REMARK  310  A    between atoms: _757  and  _760
REMARK  311  A    between atoms: _760  and  _761
REMARK  312  A    between atoms: _767  and  _769
REMARK  313  A    between atoms: _769  and  _770
REMARK  314  A    between atoms: _769  and  _772
REMARK  315  A    between atoms: _772  and  _773
REMARK  316  A    between atoms: _778  and  _780
REMARK  317  A    between atoms: _780  and  _781
REMARK  318  A    between atoms: _780  and  _783
REMARK  319  A    between atoms: _783  and  _784
REMARK  320  A    between atoms: _784  and  _785
REMARK                            x       y       z     vdW  Elec       q    Type
REMARK                         _______ _______ _______ _____ _____    ______ ____
ROOT
ATOM      1  O   HOH     1      -3.358  52.246  30.437  0.00  0.00    +0.000 OA
ENDROOT
TORSDOF 0
