REMARK  Name = ../refined-set-2016/4omj/4omj_pocket.pdb
REMARK  327 active torsions:
REMARK  status: ('A' for Active; 'I' for Inactive)
REMARK    1  A    between atoms: _1  and  _3
REMARK    2  A    between atoms: _3  and  _4
REMARK    3  A    between atoms: _3  and  _6
REMARK    4  A    between atoms: _6  and  _7
REMARK    5  A    between atoms: _10  and  _12
REMARK    6  A    between atoms: _12  and  _13
REMARK    7  A    between atoms: _12  and  _15
REMARK    8  A    between atoms: _15  and  _16
REMARK    9  A    between atoms: _21  and  _22
REMARK   10  A    between atoms: _24  and  _26
REMARK   11  A    between atoms: _26  and  _27
REMARK   12  A    between atoms: _26  and  _29
REMARK   13  A    between atoms: _29  and  _30
REMARK   14  A    between atoms: _33  and  _35
REMARK   15  A    between atoms: _35  and  _36
REMARK   16  A    between atoms: _35  and  _38
REMARK   17  A    between atoms: _38  and  _39
REMARK   18  A    between atoms: _41  and  _43
REMARK   19  A    between atoms: _43  and  _44
REMARK   20  A    between atoms: _43  and  _46
REMARK   21  A    between atoms: _46  and  _47
REMARK   22  A    between atoms: _57  and  _59
REMARK   23  A    between atoms: _59  and  _60
REMARK   24  A    between atoms: _59  and  _62
REMARK   25  A    between atoms: _62  and  _63
REMARK   26  A    between atoms: _66  and  _68
REMARK   27  A    between atoms: _68  and  _69
REMARK   28  A    between atoms: _68  and  _71
REMARK   29  A    between atoms: _71  and  _72
REMARK   30  A    between atoms: _75  and  _77
REMARK   31  A    between atoms: _77  and  _78
REMARK   32  A    between atoms: _77  and  _80
REMARK   33  A    between atoms: _80  and  _81
REMARK   34  A    between atoms: _84  and  _86
REMARK   35  A    between atoms: _86  and  _87
REMARK   36  A    between atoms: _89  and  _91
REMARK   37  A    between atoms: _91  and  _92
REMARK   38  A    between atoms: _91  and  _94
REMARK   39  A    between atoms: _94  and  _95
REMARK   40  A    between atoms: _98  and  _100
REMARK   41  A    between atoms: _100  and  _101
REMARK   42  A    between atoms: _100  and  _103
REMARK   43  A    between atoms: _103  and  _104
REMARK   44  A    between atoms: _107  and  _109
REMARK   45  A    between atoms: _109  and  _110
REMARK   46  A    between atoms: _113  and  _115
REMARK   47  A    between atoms: _115  and  _116
REMARK   48  A    between atoms: _115  and  _118
REMARK   49  A    between atoms: _118  and  _119
REMARK   50  A    between atoms: _119  and  _120
REMARK   51  A    between atoms: _120  and  _121
REMARK   52  A    between atoms: _121  and  _122
REMARK   53  A    between atoms: _126  and  _128
REMARK   54  A    between atoms: _128  and  _129
REMARK   55  A    between atoms: _131  and  _133
REMARK   56  A    between atoms: _133  and  _134
REMARK   57  A    between atoms: _133  and  _136
REMARK   58  A    between atoms: _136  and  _137
REMARK   59  A    between atoms: _140  and  _142
REMARK   60  A    between atoms: _142  and  _143
REMARK   61  A    between atoms: _142  and  _145
REMARK   62  A    between atoms: _145  and  _146
REMARK   63  A    between atoms: _149  and  _151
REMARK   64  A    between atoms: _151  and  _152
REMARK   65  A    between atoms: _151  and  _154
REMARK   66  A    between atoms: _154  and  _155
REMARK   67  A    between atoms: _161  and  _163
REMARK   68  A    between atoms: _163  and  _164
REMARK   69  A    between atoms: _167  and  _169
REMARK   70  A    between atoms: _169  and  _170
REMARK   71  A    between atoms: _169  and  _172
REMARK   72  A    between atoms: _172  and  _173
REMARK   73  A    between atoms: _175  and  _177
REMARK   74  A    between atoms: _177  and  _178
REMARK   75  A    between atoms: _177  and  _180
REMARK   76  A    between atoms: _180  and  _181
REMARK   77  A    between atoms: _181  and  _182
REMARK   78  A    between atoms: _182  and  _183
REMARK   79  A    between atoms: _183  and  _184
REMARK   80  A    between atoms: _188  and  _190
REMARK   81  A    between atoms: _190  and  _191
REMARK   82  A    between atoms: _190  and  _193
REMARK   83  A    between atoms: _193  and  _194
REMARK   84  A    between atoms: _194  and  _195
REMARK   85  A    between atoms: _200  and  _202
REMARK   86  A    between atoms: _202  and  _203
REMARK   87  A    between atoms: _202  and  _205
REMARK   88  A    between atoms: _205  and  _206
REMARK   89  A    between atoms: _209  and  _211
REMARK   90  A    between atoms: _211  and  _212
REMARK   91  A    between atoms: _211  and  _214
REMARK   92  A    between atoms: _214  and  _215
REMARK   93  A    between atoms: _218  and  _220
REMARK   94  A    between atoms: _220  and  _221
REMARK   95  A    between atoms: _220  and  _223
REMARK   96  A    between atoms: _223  and  _224
REMARK   97  A    between atoms: _227  and  _229
REMARK   98  A    between atoms: _229  and  _230
REMARK   99  A    between atoms: _229  and  _232
REMARK  100  A    between atoms: _232  and  _233
REMARK  101  A    between atoms: _233  and  _234
REMARK  102  A    between atoms: _234  and  _235
REMARK  103  A    between atoms: _244  and  _246
REMARK  104  A    between atoms: _246  and  _247
REMARK  105  A    between atoms: _246  and  _249
REMARK  106  A    between atoms: _249  and  _250
REMARK  107  A    between atoms: _253  and  _255
REMARK  108  A    between atoms: _255  and  _256
REMARK  109  A    between atoms: _255  and  _258
REMARK  110  A    between atoms: _258  and  _259
REMARK  111  A    between atoms: _259  and  _260
REMARK  112  A    between atoms: _260  and  _261
REMARK  113  A    between atoms: _261  and  _262
REMARK  114  A    between atoms: _266  and  _268
REMARK  115  A    between atoms: _268  and  _269
REMARK  116  A    between atoms: _268  and  _271
REMARK  117  A    between atoms: _271  and  _272
REMARK  118  A    between atoms: _272  and  _273
REMARK  119  A    between atoms: _275  and  _277
REMARK  120  A    between atoms: _277  and  _278
REMARK  121  A    between atoms: _277  and  _280
REMARK  122  A    between atoms: _280  and  _281
REMARK  123  A    between atoms: _281  and  _282
REMARK  124  A    between atoms: _285  and  _287
REMARK  125  A    between atoms: _287  and  _288
REMARK  126  A    between atoms: _287  and  _290
REMARK  127  A    between atoms: _292  and  _294
REMARK  128  A    between atoms: _294  and  _295
REMARK  129  A    between atoms: _294  and  _297
REMARK  130  A    between atoms: _297  and  _298
REMARK  131  A    between atoms: _301  and  _303
REMARK  132  A    between atoms: _303  and  _304
REMARK  133  A    between atoms: _303  and  _306
REMARK  134  A    between atoms: _306  and  _307
REMARK  135  A    between atoms: _310  and  _312
REMARK  136  A    between atoms: _312  and  _313
REMARK  137  A    between atoms: _312  and  _315
REMARK  138  A    between atoms: _315  and  _316
REMARK  139  A    between atoms: _319  and  _321
REMARK  140  A    between atoms: _321  and  _322
REMARK  141  A    between atoms: _321  and  _324
REMARK  142  A    between atoms: _324  and  _325
REMARK  143  A    between atoms: _330  and  _331
REMARK  144  A    between atoms: _333  and  _335
REMARK  145  A    between atoms: _335  and  _336
REMARK  146  A    between atoms: _335  and  _338
REMARK  147  A    between atoms: _338  and  _339
REMARK  148  A    between atoms: _342  and  _344
REMARK  149  A    between atoms: _344  and  _345
REMARK  150  A    between atoms: _344  and  _347
REMARK  151  A    between atoms: _349  and  _351
REMARK  152  A    between atoms: _351  and  _352
REMARK  153  A    between atoms: _351  and  _354
REMARK  154  A    between atoms: _354  and  _355
REMARK  155  A    between atoms: _358  and  _360
REMARK  156  A    between atoms: _360  and  _361
REMARK  157  A    between atoms: _363  and  _365
REMARK  158  A    between atoms: _365  and  _366
REMARK  159  A    between atoms: _365  and  _368
REMARK  160  A    between atoms: _368  and  _369
REMARK  161  A    between atoms: _369  and  _370
REMARK  162  A    between atoms: _370  and  _371
REMARK  163  A    between atoms: _371  and  _372
REMARK  164  A    between atoms: _376  and  _378
REMARK  165  A    between atoms: _378  and  _379
REMARK  166  A    between atoms: _378  and  _381
REMARK  167  A    between atoms: _381  and  _382
REMARK  168  A    between atoms: _387  and  _389
REMARK  169  A    between atoms: _389  and  _390
REMARK  170  A    between atoms: _389  and  _392
REMARK  171  A    between atoms: _392  and  _393
REMARK  172  A    between atoms: _396  and  _398
REMARK  173  A    between atoms: _398  and  _399
REMARK  174  A    between atoms: _398  and  _401
REMARK  175  A    between atoms: _401  and  _402
REMARK  176  A    between atoms: _412  and  _414
REMARK  177  A    between atoms: _414  and  _415
REMARK  178  A    between atoms: _414  and  _417
REMARK  179  A    between atoms: _417  and  _418
REMARK  180  A    between atoms: _418  and  _419
REMARK  181  A    between atoms: _419  and  _420
REMARK  182  A    between atoms: _420  and  _421
REMARK  183  A    between atoms: _426  and  _427
REMARK  184  A    between atoms: _432  and  _434
REMARK  185  A    between atoms: _434  and  _435
REMARK  186  A    between atoms: _438  and  _440
REMARK  187  A    between atoms: _440  and  _441
REMARK  188  A    between atoms: _440  and  _443
REMARK  189  A    between atoms: _446  and  _448
REMARK  190  A    between atoms: _448  and  _449
REMARK  191  A    between atoms: _448  and  _451
REMARK  192  A    between atoms: _451  and  _452
REMARK  193  A    between atoms: _452  and  _453
REMARK  194  A    between atoms: _456  and  _458
REMARK  195  A    between atoms: _458  and  _459
REMARK  196  A    between atoms: _462  and  _464
REMARK  197  A    between atoms: _464  and  _465
REMARK  198  A    between atoms: _464  and  _467
REMARK  199  A    between atoms: _467  and  _468
REMARK  200  A    between atoms: _473  and  _474
REMARK  201  A    between atoms: _476  and  _478
REMARK  202  A    between atoms: _478  and  _479
REMARK  203  A    between atoms: _481  and  _483
REMARK  204  A    between atoms: _483  and  _484
REMARK  205  A    between atoms: _483  and  _486
REMARK  206  A    between atoms: _486  and  _487
REMARK  207  A    between atoms: _487  and  _488
REMARK  208  A    between atoms: _491  and  _493
REMARK  209  A    between atoms: _493  and  _494
REMARK  210  A    between atoms: _493  and  _496
REMARK  211  A    between atoms: _496  and  _497
REMARK  212  A    between atoms: _503  and  _505
REMARK  213  A    between atoms: _505  and  _506
REMARK  214  A    between atoms: _505  and  _508
REMARK  215  A    between atoms: _508  and  _509
REMARK  216  A    between atoms: _512  and  _514
REMARK  217  A    between atoms: _514  and  _515
REMARK  218  A    between atoms: _514  and  _517
REMARK  219  A    between atoms: _519  and  _521
REMARK  220  A    between atoms: _521  and  _522
REMARK  221  A    between atoms: _521  and  _524
REMARK  222  A    between atoms: _524  and  _525
REMARK  223  A    between atoms: _531  and  _533
REMARK  224  A    between atoms: _533  and  _534
REMARK  225  A    between atoms: _533  and  _536
REMARK  226  A    between atoms: _536  and  _537
REMARK  227  A    between atoms: _537  and  _538
REMARK  228  A    between atoms: _541  and  _543
REMARK  229  A    between atoms: _543  and  _544
REMARK  230  A    between atoms: _543  and  _546
REMARK  231  A    between atoms: _546  and  _547
REMARK  232  A    between atoms: _550  and  _552
REMARK  233  A    between atoms: _552  and  _553
REMARK  234  A    between atoms: _552  and  _555
REMARK  235  A    between atoms: _555  and  _556
REMARK  236  A    between atoms: _556  and  _557
REMARK  237  A    between atoms: _557  and  _558
REMARK  238  A    between atoms: _567  and  _569
REMARK  239  A    between atoms: _569  and  _570
REMARK  240  A    between atoms: _569  and  _572
REMARK  241  A    between atoms: _572  and  _573
REMARK  242  A    between atoms: _576  and  _578
REMARK  243  A    between atoms: _578  and  _579
REMARK  244  A    between atoms: _578  and  _581
REMARK  245  A    between atoms: _581  and  _582
REMARK  246  A    between atoms: _588  and  _590
REMARK  247  A    between atoms: _590  and  _591
REMARK  248  A    between atoms: _590  and  _593
REMARK  249  A    between atoms: _596  and  _598
REMARK  250  A    between atoms: _598  and  _599
REMARK  251  A    between atoms: _603  and  _604
REMARK  252  A    between atoms: _609  and  _611
REMARK  253  A    between atoms: _611  and  _612
REMARK  254  A    between atoms: _611  and  _614
REMARK  255  A    between atoms: _614  and  _615
REMARK  256  A    between atoms: _618  and  _620
REMARK  257  A    between atoms: _620  and  _621
REMARK  258  A    between atoms: _620  and  _623
REMARK  259  A    between atoms: _623  and  _624
REMARK  260  A    between atoms: _631  and  _632
REMARK  261  A    between atoms: _637  and  _639
REMARK  262  A    between atoms: _639  and  _640
REMARK  263  A    between atoms: _639  and  _642
REMARK  264  A    between atoms: _645  and  _647
REMARK  265  A    between atoms: _647  and  _648
REMARK  266  A    between atoms: _651  and  _653
REMARK  267  A    between atoms: _653  and  _654
REMARK  268  A    between atoms: _653  and  _656
REMARK  269  A    between atoms: _656  and  _657
REMARK  270  A    between atoms: _662  and  _663
REMARK  271  A    between atoms: _665  and  _667
REMARK  272  A    between atoms: _667  and  _668
REMARK  273  A    between atoms: _667  and  _670
REMARK  274  A    between atoms: _670  and  _671
REMARK  275  A    between atoms: _676  and  _678
REMARK  276  A    between atoms: _678  and  _679
REMARK  277  A    between atoms: _678  and  _681
REMARK  278  A    between atoms: _681  and  _682
REMARK  279  A    between atoms: _685  and  _687
REMARK  280  A    between atoms: _687  and  _688
REMARK  281  A    between atoms: _687  and  _690
REMARK  282  A    between atoms: _690  and  _691
REMARK  283  A    between atoms: _694  and  _696
REMARK  284  A    between atoms: _696  and  _697
REMARK  285  A    between atoms: _696  and  _699
REMARK  286  A    between atoms: _699  and  _700
REMARK  287  A    between atoms: _700  and  _701
REMARK  288  A    between atoms: _701  and  _702
REMARK  289  A    between atoms: _702  and  _703
REMARK  290  A    between atoms: _707  and  _709
REMARK  291  A    between atoms: _709  and  _710
REMARK  292  A    between atoms: _709  and  _712
REMARK  293  A    between atoms: _712  and  _713
REMARK  294  A    between atoms: _719  and  _721
REMARK  295  A    between atoms: _721  and  _722
REMARK  296  A    between atoms: _721  and  _724
REMARK  297  A    between atoms: _724  and  _725
REMARK  298  A    between atoms: _728  and  _730
REMARK  299  A    between atoms: _730  and  _731
REMARK  300  A    between atoms: _730  and  _733
REMARK  301  A    between atoms: _733  and  _734
REMARK  302  A    between atoms: _736  and  _738
REMARK  303  A    between atoms: _738  and  _739
REMARK  304  A    between atoms: _738  and  _741
REMARK  305  A    between atoms: _741  and  _742
REMARK  306  A    between atoms: _745  and  _747
REMARK  307  A    between atoms: _747  and  _748
REMARK  308  A    between atoms: _747  and  _750
REMARK  309  A    between atoms: _750  and  _751
REMARK  310  A    between atoms: _751  and  _752
REMARK  311  A    between atoms: _752  and  _753
REMARK  312  A    between atoms: _762  and  _764
REMARK  313  A    between atoms: _764  and  _765
REMARK  314  A    between atoms: _764  and  _767
REMARK  315  A    between atoms: _767  and  _768
REMARK  316  A    between atoms: _771  and  _773
REMARK  317  A    between atoms: _773  and  _774
REMARK  318  A    between atoms: _773  and  _776
REMARK  319  A    between atoms: _776  and  _777
REMARK  320  A    between atoms: _777  and  _778
REMARK  321  A    between atoms: _780  and  _782
REMARK  322  A    between atoms: _782  and  _783
REMARK  323  A    between atoms: _782  and  _785
REMARK  324  A    between atoms: _788  and  _790
REMARK  325  A    between atoms: _790  and  _791
REMARK  326  A    between atoms: _790  and  _793
REMARK  327  A    between atoms: _793  and  _794
REMARK                            x       y       z     vdW  Elec       q    Type
REMARK                         _______ _______ _______ _____ _____    ______ ____
ROOT
ATOM      1  CA  ILE A   1      83.563  14.451  -5.104  0.00  0.00    +0.133 C 
ENDROOT
BRANCH   1   2
ATOM      2  N   ILE A   1      83.583  15.752  -5.759  0.00  0.00    -0.239 NA
ATOM      3  H   ILE A   1      82.699  16.293  -5.847  0.00  0.00    +0.142 HD
ENDBRANCH   1   2
BRANCH   1   4
ATOM      4  CB  ILE A   1      82.267  14.285  -4.274  0.00  0.00    +0.023 C 
ATOM      5  CG2 ILE A   1      82.159  12.868  -3.702  0.00  0.00    +0.002 C 
BRANCH   4   6
ATOM      6  CG1 ILE A   1      82.240  15.318  -3.155  0.00  0.00    +0.002 C 
ATOM      7  CD1 ILE A   1      80.941  15.336  -2.367  0.00  0.00    +0.000 C 
ENDBRANCH   4   6
ENDBRANCH   1   4
BRANCH   1   8
ATOM      8  C   ILE A   1      83.694  13.339  -6.128  0.00  0.00    +0.224 C 
ATOM      9  O   ILE A   1      84.503  12.405  -5.976  0.00  0.00    -0.287 OA
ENDBRANCH   1   8
TORSDOF 4
REMARK  Name = ../refined-set-2016/4omj/4omj_pocket.pdb
REMARK  327 active torsions:
REMARK  status: ('A' for Active; 'I' for Inactive)
REMARK    1  A    between atoms: _1  and  _3
REMARK    2  A    between atoms: _3  and  _4
REMARK    3  A    between atoms: _3  and  _6
REMARK    4  A    between atoms: _6  and  _7
REMARK    5  A    between atoms: _10  and  _12
REMARK    6  A    between atoms: _12  and  _13
REMARK    7  A    between atoms: _12  and  _15
REMARK    8  A    between atoms: _15  and  _16
REMARK    9  A    between atoms: _21  and  _22
REMARK   10  A    between atoms: _24  and  _26
REMARK   11  A    between atoms: _26  and  _27
REMARK   12  A    between atoms: _26  and  _29
REMARK   13  A    between atoms: _29  and  _30
REMARK   14  A    between atoms: _33  and  _35
REMARK   15  A    between atoms: _35  and  _36
REMARK   16  A    between atoms: _35  and  _38
REMARK   17  A    between atoms: _38  and  _39
REMARK   18  A    between atoms: _41  and  _43
REMARK   19  A    between atoms: _43  and  _44
REMARK   20  A    between atoms: _43  and  _46
REMARK   21  A    between atoms: _46  and  _47
REMARK   22  A    between atoms: _57  and  _59
REMARK   23  A    between atoms: _59  and  _60
REMARK   24  A    between atoms: _59  and  _62
REMARK   25  A    between atoms: _62  and  _63
REMARK   26  A    between atoms: _66  and  _68
REMARK   27  A    between atoms: _68  and  _69
REMARK   28  A    between atoms: _68  and  _71
REMARK   29  A    between atoms: _71  and  _72
REMARK   30  A    between atoms: _75  and  _77
REMARK   31  A    between atoms: _77  and  _78
REMARK   32  A    between atoms: _77  and  _80
REMARK   33  A    between atoms: _80  and  _81
REMARK   34  A    between atoms: _84  and  _86
REMARK   35  A    between atoms: _86  and  _87
REMARK   36  A    between atoms: _89  and  _91
REMARK   37  A    between atoms: _91  and  _92
REMARK   38  A    between atoms: _91  and  _94
REMARK   39  A    between atoms: _94  and  _95
REMARK   40  A    between atoms: _98  and  _100
REMARK   41  A    between atoms: _100  and  _101
REMARK   42  A    between atoms: _100  and  _103
REMARK   43  A    between atoms: _103  and  _104
REMARK   44  A    between atoms: _107  and  _109
REMARK   45  A    between atoms: _109  and  _110
REMARK   46  A    between atoms: _113  and  _115
REMARK   47  A    between atoms: _115  and  _116
REMARK   48  A    between atoms: _115  and  _118
REMARK   49  A    between atoms: _118  and  _119
REMARK   50  A    between atoms: _119  and  _120
REMARK   51  A    between atoms: _120  and  _121
REMARK   52  A    between atoms: _121  and  _122
REMARK   53  A    between atoms: _126  and  _128
REMARK   54  A    between atoms: _128  and  _129
REMARK   55  A    between atoms: _131  and  _133
REMARK   56  A    between atoms: _133  and  _134
REMARK   57  A    between atoms: _133  and  _136
REMARK   58  A    between atoms: _136  and  _137
REMARK   59  A    between atoms: _140  and  _142
REMARK   60  A    between atoms: _142  and  _143
REMARK   61  A    between atoms: _142  and  _145
REMARK   62  A    between atoms: _145  and  _146
REMARK   63  A    between atoms: _149  and  _151
REMARK   64  A    between atoms: _151  and  _152
REMARK   65  A    between atoms: _151  and  _154
REMARK   66  A    between atoms: _154  and  _155
REMARK   67  A    between atoms: _161  and  _163
REMARK   68  A    between atoms: _163  and  _164
REMARK   69  A    between atoms: _167  and  _169
REMARK   70  A    between atoms: _169  and  _170
REMARK   71  A    between atoms: _169  and  _172
REMARK   72  A    between atoms: _172  and  _173
REMARK   73  A    between atoms: _175  and  _177
REMARK   74  A    between atoms: _177  and  _178
REMARK   75  A    between atoms: _177  and  _180
REMARK   76  A    between atoms: _180  and  _181
REMARK   77  A    between atoms: _181  and  _182
REMARK   78  A    between atoms: _182  and  _183
REMARK   79  A    between atoms: _183  and  _184
REMARK   80  A    between atoms: _188  and  _190
REMARK   81  A    between atoms: _190  and  _191
REMARK   82  A    between atoms: _190  and  _193
REMARK   83  A    between atoms: _193  and  _194
REMARK   84  A    between atoms: _194  and  _195
REMARK   85  A    between atoms: _200  and  _202
REMARK   86  A    between atoms: _202  and  _203
REMARK   87  A    between atoms: _202  and  _205
REMARK   88  A    between atoms: _205  and  _206
REMARK   89  A    between atoms: _209  and  _211
REMARK   90  A    between atoms: _211  and  _212
REMARK   91  A    between atoms: _211  and  _214
REMARK   92  A    between atoms: _214  and  _215
REMARK   93  A    between atoms: _218  and  _220
REMARK   94  A    between atoms: _220  and  _221
REMARK   95  A    between atoms: _220  and  _223
REMARK   96  A    between atoms: _223  and  _224
REMARK   97  A    between atoms: _227  and  _229
REMARK   98  A    between atoms: _229  and  _230
REMARK   99  A    between atoms: _229  and  _232
REMARK  100  A    between atoms: _232  and  _233
REMARK  101  A    between atoms: _233  and  _234
REMARK  102  A    between atoms: _234  and  _235
REMARK  103  A    between atoms: _244  and  _246
REMARK  104  A    between atoms: _246  and  _247
REMARK  105  A    between atoms: _246  and  _249
REMARK  106  A    between atoms: _249  and  _250
REMARK  107  A    between atoms: _253  and  _255
REMARK  108  A    between atoms: _255  and  _256
REMARK  109  A    between atoms: _255  and  _258
REMARK  110  A    between atoms: _258  and  _259
REMARK  111  A    between atoms: _259  and  _260
REMARK  112  A    between atoms: _260  and  _261
REMARK  113  A    between atoms: _261  and  _262
REMARK  114  A    between atoms: _266  and  _268
REMARK  115  A    between atoms: _268  and  _269
REMARK  116  A    between atoms: _268  and  _271
REMARK  117  A    between atoms: _271  and  _272
REMARK  118  A    between atoms: _272  and  _273
REMARK  119  A    between atoms: _275  and  _277
REMARK  120  A    between atoms: _277  and  _278
REMARK  121  A    between atoms: _277  and  _280
REMARK  122  A    between atoms: _280  and  _281
REMARK  123  A    between atoms: _281  and  _282
REMARK  124  A    between atoms: _285  and  _287
REMARK  125  A    between atoms: _287  and  _288
REMARK  126  A    between atoms: _287  and  _290
REMARK  127  A    between atoms: _292  and  _294
REMARK  128  A    between atoms: _294  and  _295
REMARK  129  A    between atoms: _294  and  _297
REMARK  130  A    between atoms: _297  and  _298
REMARK  131  A    between atoms: _301  and  _303
REMARK  132  A    between atoms: _303  and  _304
REMARK  133  A    between atoms: _303  and  _306
REMARK  134  A    between atoms: _306  and  _307
REMARK  135  A    between atoms: _310  and  _312
REMARK  136  A    between atoms: _312  and  _313
REMARK  137  A    between atoms: _312  and  _315
REMARK  138  A    between atoms: _315  and  _316
REMARK  139  A    between atoms: _319  and  _321
REMARK  140  A    between atoms: _321  and  _322
REMARK  141  A    between atoms: _321  and  _324
REMARK  142  A    between atoms: _324  and  _325
REMARK  143  A    between atoms: _330  and  _331
REMARK  144  A    between atoms: _333  and  _335
REMARK  145  A    between atoms: _335  and  _336
REMARK  146  A    between atoms: _335  and  _338
REMARK  147  A    between atoms: _338  and  _339
REMARK  148  A    between atoms: _342  and  _344
REMARK  149  A    between atoms: _344  and  _345
REMARK  150  A    between atoms: _344  and  _347
REMARK  151  A    between atoms: _349  and  _351
REMARK  152  A    between atoms: _351  and  _352
REMARK  153  A    between atoms: _351  and  _354
REMARK  154  A    between atoms: _354  and  _355
REMARK  155  A    between atoms: _358  and  _360
REMARK  156  A    between atoms: _360  and  _361
REMARK  157  A    between atoms: _363  and  _365
REMARK  158  A    between atoms: _365  and  _366
REMARK  159  A    between atoms: _365  and  _368
REMARK  160  A    between atoms: _368  and  _369
REMARK  161  A    between atoms: _369  and  _370
REMARK  162  A    between atoms: _370  and  _371
REMARK  163  A    between atoms: _371  and  _372
REMARK  164  A    between atoms: _376  and  _378
REMARK  165  A    between atoms: _378  and  _379
REMARK  166  A    between atoms: _378  and  _381
REMARK  167  A    between atoms: _381  and  _382
REMARK  168  A    between atoms: _387  and  _389
REMARK  169  A    between atoms: _389  and  _390
REMARK  170  A    between atoms: _389  and  _392
REMARK  171  A    between atoms: _392  and  _393
REMARK  172  A    between atoms: _396  and  _398
REMARK  173  A    between atoms: _398  and  _399
REMARK  174  A    between atoms: _398  and  _401
REMARK  175  A    between atoms: _401  and  _402
REMARK  176  A    between atoms: _412  and  _414
REMARK  177  A    between atoms: _414  and  _415
REMARK  178  A    between atoms: _414  and  _417
REMARK  179  A    between atoms: _417  and  _418
REMARK  180  A    between atoms: _418  and  _419
REMARK  181  A    between atoms: _419  and  _420
REMARK  182  A    between atoms: _420  and  _421
REMARK  183  A    between atoms: _426  and  _427
REMARK  184  A    between atoms: _432  and  _434
REMARK  185  A    between atoms: _434  and  _435
REMARK  186  A    between atoms: _438  and  _440
REMARK  187  A    between atoms: _440  and  _441
REMARK  188  A    between atoms: _440  and  _443
REMARK  189  A    between atoms: _446  and  _448
REMARK  190  A    between atoms: _448  and  _449
REMARK  191  A    between atoms: _448  and  _451
REMARK  192  A    between atoms: _451  and  _452
REMARK  193  A    between atoms: _452  and  _453
REMARK  194  A    between atoms: _456  and  _458
REMARK  195  A    between atoms: _458  and  _459
REMARK  196  A    between atoms: _462  and  _464
REMARK  197  A    between atoms: _464  and  _465
REMARK  198  A    between atoms: _464  and  _467
REMARK  199  A    between atoms: _467  and  _468
REMARK  200  A    between atoms: _473  and  _474
REMARK  201  A    between atoms: _476  and  _478
REMARK  202  A    between atoms: _478  and  _479
REMARK  203  A    between atoms: _481  and  _483
REMARK  204  A    between atoms: _483  and  _484
REMARK  205  A    between atoms: _483  and  _486
REMARK  206  A    between atoms: _486  and  _487
REMARK  207  A    between atoms: _487  and  _488
REMARK  208  A    between atoms: _491  and  _493
REMARK  209  A    between atoms: _493  and  _494
REMARK  210  A    between atoms: _493  and  _496
REMARK  211  A    between atoms: _496  and  _497
REMARK  212  A    between atoms: _503  and  _505
REMARK  213  A    between atoms: _505  and  _506
REMARK  214  A    between atoms: _505  and  _508
REMARK  215  A    between atoms: _508  and  _509
REMARK  216  A    between atoms: _512  and  _514
REMARK  217  A    between atoms: _514  and  _515
REMARK  218  A    between atoms: _514  and  _517
REMARK  219  A    between atoms: _519  and  _521
REMARK  220  A    between atoms: _521  and  _522
REMARK  221  A    between atoms: _521  and  _524
REMARK  222  A    between atoms: _524  and  _525
REMARK  223  A    between atoms: _531  and  _533
REMARK  224  A    between atoms: _533  and  _534
REMARK  225  A    between atoms: _533  and  _536
REMARK  226  A    between atoms: _536  and  _537
REMARK  227  A    between atoms: _537  and  _538
REMARK  228  A    between atoms: _541  and  _543
REMARK  229  A    between atoms: _543  and  _544
REMARK  230  A    between atoms: _543  and  _546
REMARK  231  A    between atoms: _546  and  _547
REMARK  232  A    between atoms: _550  and  _552
REMARK  233  A    between atoms: _552  and  _553
REMARK  234  A    between atoms: _552  and  _555
REMARK  235  A    between atoms: _555  and  _556
REMARK  236  A    between atoms: _556  and  _557
REMARK  237  A    between atoms: _557  and  _558
REMARK  238  A    between atoms: _567  and  _569
REMARK  239  A    between atoms: _569  and  _570
REMARK  240  A    between atoms: _569  and  _572
REMARK  241  A    between atoms: _572  and  _573
REMARK  242  A    between atoms: _576  and  _578
REMARK  243  A    between atoms: _578  and  _579
REMARK  244  A    between atoms: _578  and  _581
REMARK  245  A    between atoms: _581  and  _582
REMARK  246  A    between atoms: _588  and  _590
REMARK  247  A    between atoms: _590  and  _591
REMARK  248  A    between atoms: _590  and  _593
REMARK  249  A    between atoms: _596  and  _598
REMARK  250  A    between atoms: _598  and  _599
REMARK  251  A    between atoms: _603  and  _604
REMARK  252  A    between atoms: _609  and  _611
REMARK  253  A    between atoms: _611  and  _612
REMARK  254  A    between atoms: _611  and  _614
REMARK  255  A    between atoms: _614  and  _615
REMARK  256  A    between atoms: _618  and  _620
REMARK  257  A    between atoms: _620  and  _621
REMARK  258  A    between atoms: _620  and  _623
REMARK  259  A    between atoms: _623  and  _624
REMARK  260  A    between atoms: _631  and  _632
REMARK  261  A    between atoms: _637  and  _639
REMARK  262  A    between atoms: _639  and  _640
REMARK  263  A    between atoms: _639  and  _642
REMARK  264  A    between atoms: _645  and  _647
REMARK  265  A    between atoms: _647  and  _648
REMARK  266  A    between atoms: _651  and  _653
REMARK  267  A    between atoms: _653  and  _654
REMARK  268  A    between atoms: _653  and  _656
REMARK  269  A    between atoms: _656  and  _657
REMARK  270  A    between atoms: _662  and  _663
REMARK  271  A    between atoms: _665  and  _667
REMARK  272  A    between atoms: _667  and  _668
REMARK  273  A    between atoms: _667  and  _670
REMARK  274  A    between atoms: _670  and  _671
REMARK  275  A    between atoms: _676  and  _678
REMARK  276  A    between atoms: _678  and  _679
REMARK  277  A    between atoms: _678  and  _681
REMARK  278  A    between atoms: _681  and  _682
REMARK  279  A    between atoms: _685  and  _687
REMARK  280  A    between atoms: _687  and  _688
REMARK  281  A    between atoms: _687  and  _690
REMARK  282  A    between atoms: _690  and  _691
REMARK  283  A    between atoms: _694  and  _696
REMARK  284  A    between atoms: _696  and  _697
REMARK  285  A    between atoms: _696  and  _699
REMARK  286  A    between atoms: _699  and  _700
REMARK  287  A    between atoms: _700  and  _701
REMARK  288  A    between atoms: _701  and  _702
REMARK  289  A    between atoms: _702  and  _703
REMARK  290  A    between atoms: _707  and  _709
REMARK  291  A    between atoms: _709  and  _710
REMARK  292  A    between atoms: _709  and  _712
REMARK  293  A    between atoms: _712  and  _713
REMARK  294  A    between atoms: _719  and  _721
REMARK  295  A    between atoms: _721  and  _722
REMARK  296  A    between atoms: _721  and  _724
REMARK  297  A    between atoms: _724  and  _725
REMARK  298  A    between atoms: _728  and  _730
REMARK  299  A    between atoms: _730  and  _731
REMARK  300  A    between atoms: _730  and  _733
REMARK  301  A    between atoms: _733  and  _734
REMARK  302  A    between atoms: _736  and  _738
REMARK  303  A    between atoms: _738  and  _739
REMARK  304  A    between atoms: _738  and  _741
REMARK  305  A    between atoms: _741  and  _742
REMARK  306  A    between atoms: _745  and  _747
REMARK  307  A    between atoms: _747  and  _748
REMARK  308  A    between atoms: _747  and  _750
REMARK  309  A    between atoms: _750  and  _751
REMARK  310  A    between atoms: _751  and  _752
REMARK  311  A    between atoms: _752  and  _753
REMARK  312  A    between atoms: _762  and  _764
REMARK  313  A    between atoms: _764  and  _765
REMARK  314  A    between atoms: _764  and  _767
REMARK  315  A    between atoms: _767  and  _768
REMARK  316  A    between atoms: _771  and  _773
REMARK  317  A    between atoms: _773  and  _774
REMARK  318  A    between atoms: _773  and  _776
REMARK  319  A    between atoms: _776  and  _777
REMARK  320  A    between atoms: _777  and  _778
REMARK  321  A    between atoms: _780  and  _782
REMARK  322  A    between atoms: _782  and  _783
REMARK  323  A    between atoms: _782  and  _785
REMARK  324  A    between atoms: _788  and  _790
REMARK  325  A    between atoms: _790  and  _791
REMARK  326  A    between atoms: _790  and  _793
REMARK  327  A    between atoms: _793  and  _794
REMARK                            x       y       z     vdW  Elec       q    Type
REMARK                         _______ _______ _______ _____ _____    ______ ____
ROOT
ATOM      1  C   TYR A   1      88.395  12.558  -5.107  0.00  0.00    +0.239 C 
ATOM      2  O   TYR A   1      89.360  12.362  -4.379  0.00  0.00    -0.274 OA
ATOM      3  N   LEU A   2      87.203  12.047  -4.832  0.00  0.00    -0.297 N 
ATOM      4  H   LEU A   2      86.390  12.267  -5.442  0.00  0.00    +0.150 HD
ENDROOT
BRANCH   1   5
ATOM      5  CA  TYR A   1      88.574  13.375  -6.390  0.00  0.00    +0.149 C 
BRANCH   5   6
ATOM      6  N   TYR A   1      87.431  13.452  -7.303  0.00  0.00    -0.238 NA
ATOM      7  H   TYR A   1      86.513  13.791  -6.952  0.00  0.00    +0.142 HD
ENDBRANCH   5   6
BRANCH   5   8
ATOM      8  CB  TYR A   1      89.061  14.792  -6.028  0.00  0.00    +0.053 C 
BRANCH   8   9
ATOM      9  CG  TYR A   1      89.532  15.580  -7.220  0.00  0.00    -0.020 A 
ATOM     10  CD2 TYR A   1      90.798  15.387  -7.733  0.00  0.00    -0.001 A 
ATOM     11  CE2 TYR A   1      91.242  16.097  -8.841  0.00  0.00    +0.036 A 
ATOM     12  CZ  TYR A   1      90.403  16.991  -9.443  0.00  0.00    +0.134 A 
ATOM     13  CE1 TYR A   1      89.132  17.196  -8.959  0.00  0.00    +0.036 A 
ATOM     14  CD1 TYR A   1      88.693  16.491  -7.861  0.00  0.00    -0.001 A 
BRANCH  12  15
ATOM     15  OH  TYR A   1      90.842  17.712 -10.543  0.00  0.00    -0.506 OA
ATOM     16  HH  TYR A   1      91.771  17.447 -10.761  0.00  0.00    +0.292 HD
ENDBRANCH  12  15
ENDBRANCH   8   9
ENDBRANCH   5   8
ENDBRANCH   1   5
BRANCH   3  17
ATOM     17  CA  LEU A   2      87.031  11.177  -3.675  0.00  0.00    +0.149 C 
BRANCH  17  18
ATOM     18  C   LEU A   2      87.491   9.779  -4.095  0.00  0.00    +0.241 C 
ATOM     19  N   SER A   3      88.603   9.340  -3.518  0.00  0.00    -0.296 N 
ATOM     20  H   SER A   3      89.043   9.902  -2.762  0.00  0.00    +0.150 HD
ATOM     21  O   LEU A   2      86.868   9.145  -4.937  0.00  0.00    -0.273 OA
BRANCH  19  22
ATOM     22  CA  SER A   3      89.218   8.081  -3.928  0.00  0.00    +0.166 C 
BRANCH  22  23
ATOM     23  CB  SER A   3      88.432   6.855  -3.502  0.00  0.00    +0.229 C 
ATOM     24  OG  SER A   3      87.527   6.899  -2.653  0.00  0.00    -0.286 OA
ENDBRANCH  22  23
BRANCH  22  25
ATOM     25  C   SER A   3      90.620   8.026  -3.358  0.00  0.00    +0.165 C 
BRANCH  25  26
ATOM     26  O   SER A   3      90.534   7.933  -1.977  0.00  0.00    -0.380 OA
ATOM     27  H   SER A   3      91.446   7.896  -1.592  0.00  0.00    +0.211 HD
ENDBRANCH  25  26
ENDBRANCH  22  25
ENDBRANCH  19  22
ENDBRANCH  17  18
BRANCH  17  28
ATOM     28  CB  LEU A   2      85.590  11.144  -3.196  0.00  0.00    +0.029 C 
BRANCH  28  29
ATOM     29  CG  LEU A   2      85.401  10.288  -1.939  0.00  0.00    +0.002 C 
ATOM     30  CD2 LEU A   2      86.109  10.879  -0.744  0.00  0.00    +0.000 C 
ATOM     31  CD1 LEU A   2      83.919  10.081  -1.644  0.00  0.00    +0.000 C 
ENDBRANCH  28  29
ENDBRANCH  17  28
ENDBRANCH   3  17
TORSDOF 13
REMARK  Name = ../refined-set-2016/4omj/4omj_pocket.pdb
REMARK  327 active torsions:
REMARK  status: ('A' for Active; 'I' for Inactive)
REMARK    1  A    between atoms: _1  and  _3
REMARK    2  A    between atoms: _3  and  _4
REMARK    3  A    between atoms: _3  and  _6
REMARK    4  A    between atoms: _6  and  _7
REMARK    5  A    between atoms: _10  and  _12
REMARK    6  A    between atoms: _12  and  _13
REMARK    7  A    between atoms: _12  and  _15
REMARK    8  A    between atoms: _15  and  _16
REMARK    9  A    between atoms: _21  and  _22
REMARK   10  A    between atoms: _24  and  _26
REMARK   11  A    between atoms: _26  and  _27
REMARK   12  A    between atoms: _26  and  _29
REMARK   13  A    between atoms: _29  and  _30
REMARK   14  A    between atoms: _33  and  _35
REMARK   15  A    between atoms: _35  and  _36
REMARK   16  A    between atoms: _35  and  _38
REMARK   17  A    between atoms: _38  and  _39
REMARK   18  A    between atoms: _41  and  _43
REMARK   19  A    between atoms: _43  and  _44
REMARK   20  A    between atoms: _43  and  _46
REMARK   21  A    between atoms: _46  and  _47
REMARK   22  A    between atoms: _57  and  _59
REMARK   23  A    between atoms: _59  and  _60
REMARK   24  A    between atoms: _59  and  _62
REMARK   25  A    between atoms: _62  and  _63
REMARK   26  A    between atoms: _66  and  _68
REMARK   27  A    between atoms: _68  and  _69
REMARK   28  A    between atoms: _68  and  _71
REMARK   29  A    between atoms: _71  and  _72
REMARK   30  A    between atoms: _75  and  _77
REMARK   31  A    between atoms: _77  and  _78
REMARK   32  A    between atoms: _77  and  _80
REMARK   33  A    between atoms: _80  and  _81
REMARK   34  A    between atoms: _84  and  _86
REMARK   35  A    between atoms: _86  and  _87
REMARK   36  A    between atoms: _89  and  _91
REMARK   37  A    between atoms: _91  and  _92
REMARK   38  A    between atoms: _91  and  _94
REMARK   39  A    between atoms: _94  and  _95
REMARK   40  A    between atoms: _98  and  _100
REMARK   41  A    between atoms: _100  and  _101
REMARK   42  A    between atoms: _100  and  _103
REMARK   43  A    between atoms: _103  and  _104
REMARK   44  A    between atoms: _107  and  _109
REMARK   45  A    between atoms: _109  and  _110
REMARK   46  A    between atoms: _113  and  _115
REMARK   47  A    between atoms: _115  and  _116
REMARK   48  A    between atoms: _115  and  _118
REMARK   49  A    between atoms: _118  and  _119
REMARK   50  A    between atoms: _119  and  _120
REMARK   51  A    between atoms: _120  and  _121
REMARK   52  A    between atoms: _121  and  _122
REMARK   53  A    between atoms: _126  and  _128
REMARK   54  A    between atoms: _128  and  _129
REMARK   55  A    between atoms: _131  and  _133
REMARK   56  A    between atoms: _133  and  _134
REMARK   57  A    between atoms: _133  and  _136
REMARK   58  A    between atoms: _136  and  _137
REMARK   59  A    between atoms: _140  and  _142
REMARK   60  A    between atoms: _142  and  _143
REMARK   61  A    between atoms: _142  and  _145
REMARK   62  A    between atoms: _145  and  _146
REMARK   63  A    between atoms: _149  and  _151
REMARK   64  A    between atoms: _151  and  _152
REMARK   65  A    between atoms: _151  and  _154
REMARK   66  A    between atoms: _154  and  _155
REMARK   67  A    between atoms: _161  and  _163
REMARK   68  A    between atoms: _163  and  _164
REMARK   69  A    between atoms: _167  and  _169
REMARK   70  A    between atoms: _169  and  _170
REMARK   71  A    between atoms: _169  and  _172
REMARK   72  A    between atoms: _172  and  _173
REMARK   73  A    between atoms: _175  and  _177
REMARK   74  A    between atoms: _177  and  _178
REMARK   75  A    between atoms: _177  and  _180
REMARK   76  A    between atoms: _180  and  _181
REMARK   77  A    between atoms: _181  and  _182
REMARK   78  A    between atoms: _182  and  _183
REMARK   79  A    between atoms: _183  and  _184
REMARK   80  A    between atoms: _188  and  _190
REMARK   81  A    between atoms: _190  and  _191
REMARK   82  A    between atoms: _190  and  _193
REMARK   83  A    between atoms: _193  and  _194
REMARK   84  A    between atoms: _194  and  _195
REMARK   85  A    between atoms: _200  and  _202
REMARK   86  A    between atoms: _202  and  _203
REMARK   87  A    between atoms: _202  and  _205
REMARK   88  A    between atoms: _205  and  _206
REMARK   89  A    between atoms: _209  and  _211
REMARK   90  A    between atoms: _211  and  _212
REMARK   91  A    between atoms: _211  and  _214
REMARK   92  A    between atoms: _214  and  _215
REMARK   93  A    between atoms: _218  and  _220
REMARK   94  A    between atoms: _220  and  _221
REMARK   95  A    between atoms: _220  and  _223
REMARK   96  A    between atoms: _223  and  _224
REMARK   97  A    between atoms: _227  and  _229
REMARK   98  A    between atoms: _229  and  _230
REMARK   99  A    between atoms: _229  and  _232
REMARK  100  A    between atoms: _232  and  _233
REMARK  101  A    between atoms: _233  and  _234
REMARK  102  A    between atoms: _234  and  _235
REMARK  103  A    between atoms: _244  and  _246
REMARK  104  A    between atoms: _246  and  _247
REMARK  105  A    between atoms: _246  and  _249
REMARK  106  A    between atoms: _249  and  _250
REMARK  107  A    between atoms: _253  and  _255
REMARK  108  A    between atoms: _255  and  _256
REMARK  109  A    between atoms: _255  and  _258
REMARK  110  A    between atoms: _258  and  _259
REMARK  111  A    between atoms: _259  and  _260
REMARK  112  A    between atoms: _260  and  _261
REMARK  113  A    between atoms: _261  and  _262
REMARK  114  A    between atoms: _266  and  _268
REMARK  115  A    between atoms: _268  and  _269
REMARK  116  A    between atoms: _268  and  _271
REMARK  117  A    between atoms: _271  and  _272
REMARK  118  A    between atoms: _272  and  _273
REMARK  119  A    between atoms: _275  and  _277
REMARK  120  A    between atoms: _277  and  _278
REMARK  121  A    between atoms: _277  and  _280
REMARK  122  A    between atoms: _280  and  _281
REMARK  123  A    between atoms: _281  and  _282
REMARK  124  A    between atoms: _285  and  _287
REMARK  125  A    between atoms: _287  and  _288
REMARK  126  A    between atoms: _287  and  _290
REMARK  127  A    between atoms: _292  and  _294
REMARK  128  A    between atoms: _294  and  _295
REMARK  129  A    between atoms: _294  and  _297
REMARK  130  A    between atoms: _297  and  _298
REMARK  131  A    between atoms: _301  and  _303
REMARK  132  A    between atoms: _303  and  _304
REMARK  133  A    between atoms: _303  and  _306
REMARK  134  A    between atoms: _306  and  _307
REMARK  135  A    between atoms: _310  and  _312
REMARK  136  A    between atoms: _312  and  _313
REMARK  137  A    between atoms: _312  and  _315
REMARK  138  A    between atoms: _315  and  _316
REMARK  139  A    between atoms: _319  and  _321
REMARK  140  A    between atoms: _321  and  _322
REMARK  141  A    between atoms: _321  and  _324
REMARK  142  A    between atoms: _324  and  _325
REMARK  143  A    between atoms: _330  and  _331
REMARK  144  A    between atoms: _333  and  _335
REMARK  145  A    between atoms: _335  and  _336
REMARK  146  A    between atoms: _335  and  _338
REMARK  147  A    between atoms: _338  and  _339
REMARK  148  A    between atoms: _342  and  _344
REMARK  149  A    between atoms: _344  and  _345
REMARK  150  A    between atoms: _344  and  _347
REMARK  151  A    between atoms: _349  and  _351
REMARK  152  A    between atoms: _351  and  _352
REMARK  153  A    between atoms: _351  and  _354
REMARK  154  A    between atoms: _354  and  _355
REMARK  155  A    between atoms: _358  and  _360
REMARK  156  A    between atoms: _360  and  _361
REMARK  157  A    between atoms: _363  and  _365
REMARK  158  A    between atoms: _365  and  _366
REMARK  159  A    between atoms: _365  and  _368
REMARK  160  A    between atoms: _368  and  _369
REMARK  161  A    between atoms: _369  and  _370
REMARK  162  A    between atoms: _370  and  _371
REMARK  163  A    between atoms: _371  and  _372
REMARK  164  A    between atoms: _376  and  _378
REMARK  165  A    between atoms: _378  and  _379
REMARK  166  A    between atoms: _378  and  _381
REMARK  167  A    between atoms: _381  and  _382
REMARK  168  A    between atoms: _387  and  _389
REMARK  169  A    between atoms: _389  and  _390
REMARK  170  A    between atoms: _389  and  _392
REMARK  171  A    between atoms: _392  and  _393
REMARK  172  A    between atoms: _396  and  _398
REMARK  173  A    between atoms: _398  and  _399
REMARK  174  A    between atoms: _398  and  _401
REMARK  175  A    between atoms: _401  and  _402
REMARK  176  A    between atoms: _412  and  _414
REMARK  177  A    between atoms: _414  and  _415
REMARK  178  A    between atoms: _414  and  _417
REMARK  179  A    between atoms: _417  and  _418
REMARK  180  A    between atoms: _418  and  _419
REMARK  181  A    between atoms: _419  and  _420
REMARK  182  A    between atoms: _420  and  _421
REMARK  183  A    between atoms: _426  and  _427
REMARK  184  A    between atoms: _432  and  _434
REMARK  185  A    between atoms: _434  and  _435
REMARK  186  A    between atoms: _438  and  _440
REMARK  187  A    between atoms: _440  and  _441
REMARK  188  A    between atoms: _440  and  _443
REMARK  189  A    between atoms: _446  and  _448
REMARK  190  A    between atoms: _448  and  _449
REMARK  191  A    between atoms: _448  and  _451
REMARK  192  A    between atoms: _451  and  _452
REMARK  193  A    between atoms: _452  and  _453
REMARK  194  A    between atoms: _456  and  _458
REMARK  195  A    between atoms: _458  and  _459
REMARK  196  A    between atoms: _462  and  _464
REMARK  197  A    between atoms: _464  and  _465
REMARK  198  A    between atoms: _464  and  _467
REMARK  199  A    between atoms: _467  and  _468
REMARK  200  A    between atoms: _473  and  _474
REMARK  201  A    between atoms: _476  and  _478
REMARK  202  A    between atoms: _478  and  _479
REMARK  203  A    between atoms: _481  and  _483
REMARK  204  A    between atoms: _483  and  _484
REMARK  205  A    between atoms: _483  and  _486
REMARK  206  A    between atoms: _486  and  _487
REMARK  207  A    between atoms: _487  and  _488
REMARK  208  A    between atoms: _491  and  _493
REMARK  209  A    between atoms: _493  and  _494
REMARK  210  A    between atoms: _493  and  _496
REMARK  211  A    between atoms: _496  and  _497
REMARK  212  A    between atoms: _503  and  _505
REMARK  213  A    between atoms: _505  and  _506
REMARK  214  A    between atoms: _505  and  _508
REMARK  215  A    between atoms: _508  and  _509
REMARK  216  A    between atoms: _512  and  _514
REMARK  217  A    between atoms: _514  and  _515
REMARK  218  A    between atoms: _514  and  _517
REMARK  219  A    between atoms: _519  and  _521
REMARK  220  A    between atoms: _521  and  _522
REMARK  221  A    between atoms: _521  and  _524
REMARK  222  A    between atoms: _524  and  _525
REMARK  223  A    between atoms: _531  and  _533
REMARK  224  A    between atoms: _533  and  _534
REMARK  225  A    between atoms: _533  and  _536
REMARK  226  A    between atoms: _536  and  _537
REMARK  227  A    between atoms: _537  and  _538
REMARK  228  A    between atoms: _541  and  _543
REMARK  229  A    between atoms: _543  and  _544
REMARK  230  A    between atoms: _543  and  _546
REMARK  231  A    between atoms: _546  and  _547
REMARK  232  A    between atoms: _550  and  _552
REMARK  233  A    between atoms: _552  and  _553
REMARK  234  A    between atoms: _552  and  _555
REMARK  235  A    between atoms: _555  and  _556
REMARK  236  A    between atoms: _556  and  _557
REMARK  237  A    between atoms: _557  and  _558
REMARK  238  A    between atoms: _567  and  _569
REMARK  239  A    between atoms: _569  and  _570
REMARK  240  A    between atoms: _569  and  _572
REMARK  241  A    between atoms: _572  and  _573
REMARK  242  A    between atoms: _576  and  _578
REMARK  243  A    between atoms: _578  and  _579
REMARK  244  A    between atoms: _578  and  _581
REMARK  245  A    between atoms: _581  and  _582
REMARK  246  A    between atoms: _588  and  _590
REMARK  247  A    between atoms: _590  and  _591
REMARK  248  A    between atoms: _590  and  _593
REMARK  249  A    between atoms: _596  and  _598
REMARK  250  A    between atoms: _598  and  _599
REMARK  251  A    between atoms: _603  and  _604
REMARK  252  A    between atoms: _609  and  _611
REMARK  253  A    between atoms: _611  and  _612
REMARK  254  A    between atoms: _611  and  _614
REMARK  255  A    between atoms: _614  and  _615
REMARK  256  A    between atoms: _618  and  _620
REMARK  257  A    between atoms: _620  and  _621
REMARK  258  A    between atoms: _620  and  _623
REMARK  259  A    between atoms: _623  and  _624
REMARK  260  A    between atoms: _631  and  _632
REMARK  261  A    between atoms: _637  and  _639
REMARK  262  A    between atoms: _639  and  _640
REMARK  263  A    between atoms: _639  and  _642
REMARK  264  A    between atoms: _645  and  _647
REMARK  265  A    between atoms: _647  and  _648
REMARK  266  A    between atoms: _651  and  _653
REMARK  267  A    between atoms: _653  and  _654
REMARK  268  A    between atoms: _653  and  _656
REMARK  269  A    between atoms: _656  and  _657
REMARK  270  A    between atoms: _662  and  _663
REMARK  271  A    between atoms: _665  and  _667
REMARK  272  A    between atoms: _667  and  _668
REMARK  273  A    between atoms: _667  and  _670
REMARK  274  A    between atoms: _670  and  _671
REMARK  275  A    between atoms: _676  and  _678
REMARK  276  A    between atoms: _678  and  _679
REMARK  277  A    between atoms: _678  and  _681
REMARK  278  A    between atoms: _681  and  _682
REMARK  279  A    between atoms: _685  and  _687
REMARK  280  A    between atoms: _687  and  _688
REMARK  281  A    between atoms: _687  and  _690
REMARK  282  A    between atoms: _690  and  _691
REMARK  283  A    between atoms: _694  and  _696
REMARK  284  A    between atoms: _696  and  _697
REMARK  285  A    between atoms: _696  and  _699
REMARK  286  A    between atoms: _699  and  _700
REMARK  287  A    between atoms: _700  and  _701
REMARK  288  A    between atoms: _701  and  _702
REMARK  289  A    between atoms: _702  and  _703
REMARK  290  A    between atoms: _707  and  _709
REMARK  291  A    between atoms: _709  and  _710
REMARK  292  A    between atoms: _709  and  _712
REMARK  293  A    between atoms: _712  and  _713
REMARK  294  A    between atoms: _719  and  _721
REMARK  295  A    between atoms: _721  and  _722
REMARK  296  A    between atoms: _721  and  _724
REMARK  297  A    between atoms: _724  and  _725
REMARK  298  A    between atoms: _728  and  _730
REMARK  299  A    between atoms: _730  and  _731
REMARK  300  A    between atoms: _730  and  _733
REMARK  301  A    between atoms: _733  and  _734
REMARK  302  A    between atoms: _736  and  _738
REMARK  303  A    between atoms: _738  and  _739
REMARK  304  A    between atoms: _738  and  _741
REMARK  305  A    between atoms: _741  and  _742
REMARK  306  A    between atoms: _745  and  _747
REMARK  307  A    between atoms: _747  and  _748
REMARK  308  A    between atoms: _747  and  _750
REMARK  309  A    between atoms: _750  and  _751
REMARK  310  A    between atoms: _751  and  _752
REMARK  311  A    between atoms: _752  and  _753
REMARK  312  A    between atoms: _762  and  _764
REMARK  313  A    between atoms: _764  and  _765
REMARK  314  A    between atoms: _764  and  _767
REMARK  315  A    between atoms: _767  and  _768
REMARK  316  A    between atoms: _771  and  _773
REMARK  317  A    between atoms: _773  and  _774
REMARK  318  A    between atoms: _773  and  _776
REMARK  319  A    between atoms: _776  and  _777
REMARK  320  A    between atoms: _777  and  _778
REMARK  321  A    between atoms: _780  and  _782
REMARK  322  A    between atoms: _782  and  _783
REMARK  323  A    between atoms: _782  and  _785
REMARK  324  A    between atoms: _788  and  _790
REMARK  325  A    between atoms: _790  and  _791
REMARK  326  A    between atoms: _790  and  _793
REMARK  327  A    between atoms: _793  and  _794
REMARK                            x       y       z     vdW  Elec       q    Type
REMARK                         _______ _______ _______ _____ _____    ______ ____
ROOT
ATOM      1  CG  TRP A   1      85.333  -0.203  -1.090  0.00  0.00    -0.002 A 
ATOM      2  CD1 TRP A   1      86.143   0.506  -0.252  0.00  0.00    +0.068 A 
ATOM      3  NE1 TRP A   1      86.039   1.845  -0.519  0.00  0.00    -0.352 N 
ATOM      4  HE1 TRP A   1      86.552   2.604  -0.027  0.00  0.00    +0.166 HD
ATOM      5  CE2 TRP A   1      85.148   2.016  -1.542  0.00  0.00    +0.056 A 
ATOM      6  CZ2 TRP A   1      84.695   3.170  -2.141  0.00  0.00    +0.017 A 
ATOM      7  CH2 TRP A   1      83.794   3.048  -3.142  0.00  0.00    +0.001 A 
ATOM      8  CZ3 TRP A   1      83.320   1.808  -3.552  0.00  0.00    +0.000 A 
ATOM      9  CE3 TRP A   1      83.757   0.647  -2.945  0.00  0.00    +0.001 A 
ATOM     10  CD2 TRP A   1      84.679   0.743  -1.917  0.00  0.00    +0.013 A 
ENDROOT
BRANCH   1  11
ATOM     11  CB  TRP A   1      85.196  -1.688  -1.159  0.00  0.00    +0.053 C 
BRANCH  11  12
ATOM     12  CA  TRP A   1      86.162  -2.284  -2.212  0.00  0.00    +0.137 C 
BRANCH  12  13
ATOM     13  N   TRP A   1      86.100  -3.740  -2.179  0.00  0.00    -0.239 NA
ATOM     14  H   TRP A   1      86.283  -4.216  -1.272  0.00  0.00    +0.142 HD
ENDBRANCH  12  13
BRANCH  12  15
ATOM     15  C   TRP A   1      87.592  -1.864  -1.884  0.00  0.00    +0.224 C 
ATOM     16  O   TRP A   1      88.173  -2.392  -0.932  0.00  0.00    -0.287 OA
ENDBRANCH  12  15
ENDBRANCH  11  12
ENDBRANCH   1  11
TORSDOF 4
REMARK  Name = ../refined-set-2016/4omj/4omj_pocket.pdb
REMARK  327 active torsions:
REMARK  status: ('A' for Active; 'I' for Inactive)
REMARK    1  A    between atoms: _1  and  _3
REMARK    2  A    between atoms: _3  and  _4
REMARK    3  A    between atoms: _3  and  _6
REMARK    4  A    between atoms: _6  and  _7
REMARK    5  A    between atoms: _10  and  _12
REMARK    6  A    between atoms: _12  and  _13
REMARK    7  A    between atoms: _12  and  _15
REMARK    8  A    between atoms: _15  and  _16
REMARK    9  A    between atoms: _21  and  _22
REMARK   10  A    between atoms: _24  and  _26
REMARK   11  A    between atoms: _26  and  _27
REMARK   12  A    between atoms: _26  and  _29
REMARK   13  A    between atoms: _29  and  _30
REMARK   14  A    between atoms: _33  and  _35
REMARK   15  A    between atoms: _35  and  _36
REMARK   16  A    between atoms: _35  and  _38
REMARK   17  A    between atoms: _38  and  _39
REMARK   18  A    between atoms: _41  and  _43
REMARK   19  A    between atoms: _43  and  _44
REMARK   20  A    between atoms: _43  and  _46
REMARK   21  A    between atoms: _46  and  _47
REMARK   22  A    between atoms: _57  and  _59
REMARK   23  A    between atoms: _59  and  _60
REMARK   24  A    between atoms: _59  and  _62
REMARK   25  A    between atoms: _62  and  _63
REMARK   26  A    between atoms: _66  and  _68
REMARK   27  A    between atoms: _68  and  _69
REMARK   28  A    between atoms: _68  and  _71
REMARK   29  A    between atoms: _71  and  _72
REMARK   30  A    between atoms: _75  and  _77
REMARK   31  A    between atoms: _77  and  _78
REMARK   32  A    between atoms: _77  and  _80
REMARK   33  A    between atoms: _80  and  _81
REMARK   34  A    between atoms: _84  and  _86
REMARK   35  A    between atoms: _86  and  _87
REMARK   36  A    between atoms: _89  and  _91
REMARK   37  A    between atoms: _91  and  _92
REMARK   38  A    between atoms: _91  and  _94
REMARK   39  A    between atoms: _94  and  _95
REMARK   40  A    between atoms: _98  and  _100
REMARK   41  A    between atoms: _100  and  _101
REMARK   42  A    between atoms: _100  and  _103
REMARK   43  A    between atoms: _103  and  _104
REMARK   44  A    between atoms: _107  and  _109
REMARK   45  A    between atoms: _109  and  _110
REMARK   46  A    between atoms: _113  and  _115
REMARK   47  A    between atoms: _115  and  _116
REMARK   48  A    between atoms: _115  and  _118
REMARK   49  A    between atoms: _118  and  _119
REMARK   50  A    between atoms: _119  and  _120
REMARK   51  A    between atoms: _120  and  _121
REMARK   52  A    between atoms: _121  and  _122
REMARK   53  A    between atoms: _126  and  _128
REMARK   54  A    between atoms: _128  and  _129
REMARK   55  A    between atoms: _131  and  _133
REMARK   56  A    between atoms: _133  and  _134
REMARK   57  A    between atoms: _133  and  _136
REMARK   58  A    between atoms: _136  and  _137
REMARK   59  A    between atoms: _140  and  _142
REMARK   60  A    between atoms: _142  and  _143
REMARK   61  A    between atoms: _142  and  _145
REMARK   62  A    between atoms: _145  and  _146
REMARK   63  A    between atoms: _149  and  _151
REMARK   64  A    between atoms: _151  and  _152
REMARK   65  A    between atoms: _151  and  _154
REMARK   66  A    between atoms: _154  and  _155
REMARK   67  A    between atoms: _161  and  _163
REMARK   68  A    between atoms: _163  and  _164
REMARK   69  A    between atoms: _167  and  _169
REMARK   70  A    between atoms: _169  and  _170
REMARK   71  A    between atoms: _169  and  _172
REMARK   72  A    between atoms: _172  and  _173
REMARK   73  A    between atoms: _175  and  _177
REMARK   74  A    between atoms: _177  and  _178
REMARK   75  A    between atoms: _177  and  _180
REMARK   76  A    between atoms: _180  and  _181
REMARK   77  A    between atoms: _181  and  _182
REMARK   78  A    between atoms: _182  and  _183
REMARK   79  A    between atoms: _183  and  _184
REMARK   80  A    between atoms: _188  and  _190
REMARK   81  A    between atoms: _190  and  _191
REMARK   82  A    between atoms: _190  and  _193
REMARK   83  A    between atoms: _193  and  _194
REMARK   84  A    between atoms: _194  and  _195
REMARK   85  A    between atoms: _200  and  _202
REMARK   86  A    between atoms: _202  and  _203
REMARK   87  A    between atoms: _202  and  _205
REMARK   88  A    between atoms: _205  and  _206
REMARK   89  A    between atoms: _209  and  _211
REMARK   90  A    between atoms: _211  and  _212
REMARK   91  A    between atoms: _211  and  _214
REMARK   92  A    between atoms: _214  and  _215
REMARK   93  A    between atoms: _218  and  _220
REMARK   94  A    between atoms: _220  and  _221
REMARK   95  A    between atoms: _220  and  _223
REMARK   96  A    between atoms: _223  and  _224
REMARK   97  A    between atoms: _227  and  _229
REMARK   98  A    between atoms: _229  and  _230
REMARK   99  A    between atoms: _229  and  _232
REMARK  100  A    between atoms: _232  and  _233
REMARK  101  A    between atoms: _233  and  _234
REMARK  102  A    between atoms: _234  and  _235
REMARK  103  A    between atoms: _244  and  _246
REMARK  104  A    between atoms: _246  and  _247
REMARK  105  A    between atoms: _246  and  _249
REMARK  106  A    between atoms: _249  and  _250
REMARK  107  A    between atoms: _253  and  _255
REMARK  108  A    between atoms: _255  and  _256
REMARK  109  A    between atoms: _255  and  _258
REMARK  110  A    between atoms: _258  and  _259
REMARK  111  A    between atoms: _259  and  _260
REMARK  112  A    between atoms: _260  and  _261
REMARK  113  A    between atoms: _261  and  _262
REMARK  114  A    between atoms: _266  and  _268
REMARK  115  A    between atoms: _268  and  _269
REMARK  116  A    between atoms: _268  and  _271
REMARK  117  A    between atoms: _271  and  _272
REMARK  118  A    between atoms: _272  and  _273
REMARK  119  A    between atoms: _275  and  _277
REMARK  120  A    between atoms: _277  and  _278
REMARK  121  A    between atoms: _277  and  _280
REMARK  122  A    between atoms: _280  and  _281
REMARK  123  A    between atoms: _281  and  _282
REMARK  124  A    between atoms: _285  and  _287
REMARK  125  A    between atoms: _287  and  _288
REMARK  126  A    between atoms: _287  and  _290
REMARK  127  A    between atoms: _292  and  _294
REMARK  128  A    between atoms: _294  and  _295
REMARK  129  A    between atoms: _294  and  _297
REMARK  130  A    between atoms: _297  and  _298
REMARK  131  A    between atoms: _301  and  _303
REMARK  132  A    between atoms: _303  and  _304
REMARK  133  A    between atoms: _303  and  _306
REMARK  134  A    between atoms: _306  and  _307
REMARK  135  A    between atoms: _310  and  _312
REMARK  136  A    between atoms: _312  and  _313
REMARK  137  A    between atoms: _312  and  _315
REMARK  138  A    between atoms: _315  and  _316
REMARK  139  A    between atoms: _319  and  _321
REMARK  140  A    between atoms: _321  and  _322
REMARK  141  A    between atoms: _321  and  _324
REMARK  142  A    between atoms: _324  and  _325
REMARK  143  A    between atoms: _330  and  _331
REMARK  144  A    between atoms: _333  and  _335
REMARK  145  A    between atoms: _335  and  _336
REMARK  146  A    between atoms: _335  and  _338
REMARK  147  A    between atoms: _338  and  _339
REMARK  148  A    between atoms: _342  and  _344
REMARK  149  A    between atoms: _344  and  _345
REMARK  150  A    between atoms: _344  and  _347
REMARK  151  A    between atoms: _349  and  _351
REMARK  152  A    between atoms: _351  and  _352
REMARK  153  A    between atoms: _351  and  _354
REMARK  154  A    between atoms: _354  and  _355
REMARK  155  A    between atoms: _358  and  _360
REMARK  156  A    between atoms: _360  and  _361
REMARK  157  A    between atoms: _363  and  _365
REMARK  158  A    between atoms: _365  and  _366
REMARK  159  A    between atoms: _365  and  _368
REMARK  160  A    between atoms: _368  and  _369
REMARK  161  A    between atoms: _369  and  _370
REMARK  162  A    between atoms: _370  and  _371
REMARK  163  A    between atoms: _371  and  _372
REMARK  164  A    between atoms: _376  and  _378
REMARK  165  A    between atoms: _378  and  _379
REMARK  166  A    between atoms: _378  and  _381
REMARK  167  A    between atoms: _381  and  _382
REMARK  168  A    between atoms: _387  and  _389
REMARK  169  A    between atoms: _389  and  _390
REMARK  170  A    between atoms: _389  and  _392
REMARK  171  A    between atoms: _392  and  _393
REMARK  172  A    between atoms: _396  and  _398
REMARK  173  A    between atoms: _398  and  _399
REMARK  174  A    between atoms: _398  and  _401
REMARK  175  A    between atoms: _401  and  _402
REMARK  176  A    between atoms: _412  and  _414
REMARK  177  A    between atoms: _414  and  _415
REMARK  178  A    between atoms: _414  and  _417
REMARK  179  A    between atoms: _417  and  _418
REMARK  180  A    between atoms: _418  and  _419
REMARK  181  A    between atoms: _419  and  _420
REMARK  182  A    between atoms: _420  and  _421
REMARK  183  A    between atoms: _426  and  _427
REMARK  184  A    between atoms: _432  and  _434
REMARK  185  A    between atoms: _434  and  _435
REMARK  186  A    between atoms: _438  and  _440
REMARK  187  A    between atoms: _440  and  _441
REMARK  188  A    between atoms: _440  and  _443
REMARK  189  A    between atoms: _446  and  _448
REMARK  190  A    between atoms: _448  and  _449
REMARK  191  A    between atoms: _448  and  _451
REMARK  192  A    between atoms: _451  and  _452
REMARK  193  A    between atoms: _452  and  _453
REMARK  194  A    between atoms: _456  and  _458
REMARK  195  A    between atoms: _458  and  _459
REMARK  196  A    between atoms: _462  and  _464
REMARK  197  A    between atoms: _464  and  _465
REMARK  198  A    between atoms: _464  and  _467
REMARK  199  A    between atoms: _467  and  _468
REMARK  200  A    between atoms: _473  and  _474
REMARK  201  A    between atoms: _476  and  _478
REMARK  202  A    between atoms: _478  and  _479
REMARK  203  A    between atoms: _481  and  _483
REMARK  204  A    between atoms: _483  and  _484
REMARK  205  A    between atoms: _483  and  _486
REMARK  206  A    between atoms: _486  and  _487
REMARK  207  A    between atoms: _487  and  _488
REMARK  208  A    between atoms: _491  and  _493
REMARK  209  A    between atoms: _493  and  _494
REMARK  210  A    between atoms: _493  and  _496
REMARK  211  A    between atoms: _496  and  _497
REMARK  212  A    between atoms: _503  and  _505
REMARK  213  A    between atoms: _505  and  _506
REMARK  214  A    between atoms: _505  and  _508
REMARK  215  A    between atoms: _508  and  _509
REMARK  216  A    between atoms: _512  and  _514
REMARK  217  A    between atoms: _514  and  _515
REMARK  218  A    between atoms: _514  and  _517
REMARK  219  A    between atoms: _519  and  _521
REMARK  220  A    between atoms: _521  and  _522
REMARK  221  A    between atoms: _521  and  _524
REMARK  222  A    between atoms: _524  and  _525
REMARK  223  A    between atoms: _531  and  _533
REMARK  224  A    between atoms: _533  and  _534
REMARK  225  A    between atoms: _533  and  _536
REMARK  226  A    between atoms: _536  and  _537
REMARK  227  A    between atoms: _537  and  _538
REMARK  228  A    between atoms: _541  and  _543
REMARK  229  A    between atoms: _543  and  _544
REMARK  230  A    between atoms: _543  and  _546
REMARK  231  A    between atoms: _546  and  _547
REMARK  232  A    between atoms: _550  and  _552
REMARK  233  A    between atoms: _552  and  _553
REMARK  234  A    between atoms: _552  and  _555
REMARK  235  A    between atoms: _555  and  _556
REMARK  236  A    between atoms: _556  and  _557
REMARK  237  A    between atoms: _557  and  _558
REMARK  238  A    between atoms: _567  and  _569
REMARK  239  A    between atoms: _569  and  _570
REMARK  240  A    between atoms: _569  and  _572
REMARK  241  A    between atoms: _572  and  _573
REMARK  242  A    between atoms: _576  and  _578
REMARK  243  A    between atoms: _578  and  _579
REMARK  244  A    between atoms: _578  and  _581
REMARK  245  A    between atoms: _581  and  _582
REMARK  246  A    between atoms: _588  and  _590
REMARK  247  A    between atoms: _590  and  _591
REMARK  248  A    between atoms: _590  and  _593
REMARK  249  A    between atoms: _596  and  _598
REMARK  250  A    between atoms: _598  and  _599
REMARK  251  A    between atoms: _603  and  _604
REMARK  252  A    between atoms: _609  and  _611
REMARK  253  A    between atoms: _611  and  _612
REMARK  254  A    between atoms: _611  and  _614
REMARK  255  A    between atoms: _614  and  _615
REMARK  256  A    between atoms: _618  and  _620
REMARK  257  A    between atoms: _620  and  _621
REMARK  258  A    between atoms: _620  and  _623
REMARK  259  A    between atoms: _623  and  _624
REMARK  260  A    between atoms: _631  and  _632
REMARK  261  A    between atoms: _637  and  _639
REMARK  262  A    between atoms: _639  and  _640
REMARK  263  A    between atoms: _639  and  _642
REMARK  264  A    between atoms: _645  and  _647
REMARK  265  A    between atoms: _647  and  _648
REMARK  266  A    between atoms: _651  and  _653
REMARK  267  A    between atoms: _653  and  _654
REMARK  268  A    between atoms: _653  and  _656
REMARK  269  A    between atoms: _656  and  _657
REMARK  270  A    between atoms: _662  and  _663
REMARK  271  A    between atoms: _665  and  _667
REMARK  272  A    between atoms: _667  and  _668
REMARK  273  A    between atoms: _667  and  _670
REMARK  274  A    between atoms: _670  and  _671
REMARK  275  A    between atoms: _676  and  _678
REMARK  276  A    between atoms: _678  and  _679
REMARK  277  A    between atoms: _678  and  _681
REMARK  278  A    between atoms: _681  and  _682
REMARK  279  A    between atoms: _685  and  _687
REMARK  280  A    between atoms: _687  and  _688
REMARK  281  A    between atoms: _687  and  _690
REMARK  282  A    between atoms: _690  and  _691
REMARK  283  A    between atoms: _694  and  _696
REMARK  284  A    between atoms: _696  and  _697
REMARK  285  A    between atoms: _696  and  _699
REMARK  286  A    between atoms: _699  and  _700
REMARK  287  A    between atoms: _700  and  _701
REMARK  288  A    between atoms: _701  and  _702
REMARK  289  A    between atoms: _702  and  _703
REMARK  290  A    between atoms: _707  and  _709
REMARK  291  A    between atoms: _709  and  _710
REMARK  292  A    between atoms: _709  and  _712
REMARK  293  A    between atoms: _712  and  _713
REMARK  294  A    between atoms: _719  and  _721
REMARK  295  A    between atoms: _721  and  _722
REMARK  296  A    between atoms: _721  and  _724
REMARK  297  A    between atoms: _724  and  _725
REMARK  298  A    between atoms: _728  and  _730
REMARK  299  A    between atoms: _730  and  _731
REMARK  300  A    between atoms: _730  and  _733
REMARK  301  A    between atoms: _733  and  _734
REMARK  302  A    between atoms: _736  and  _738
REMARK  303  A    between atoms: _738  and  _739
REMARK  304  A    between atoms: _738  and  _741
REMARK  305  A    between atoms: _741  and  _742
REMARK  306  A    between atoms: _745  and  _747
REMARK  307  A    between atoms: _747  and  _748
REMARK  308  A    between atoms: _747  and  _750
REMARK  309  A    between atoms: _750  and  _751
REMARK  310  A    between atoms: _751  and  _752
REMARK  311  A    between atoms: _752  and  _753
REMARK  312  A    between atoms: _762  and  _764
REMARK  313  A    between atoms: _764  and  _765
REMARK  314  A    between atoms: _764  and  _767
REMARK  315  A    between atoms: _767  and  _768
REMARK  316  A    between atoms: _771  and  _773
REMARK  317  A    between atoms: _773  and  _774
REMARK  318  A    between atoms: _773  and  _776
REMARK  319  A    between atoms: _776  and  _777
REMARK  320  A    between atoms: _777  and  _778
REMARK  321  A    between atoms: _780  and  _782
REMARK  322  A    between atoms: _782  and  _783
REMARK  323  A    between atoms: _782  and  _785
REMARK  324  A    between atoms: _788  and  _790
REMARK  325  A    between atoms: _790  and  _791
REMARK  326  A    between atoms: _790  and  _793
REMARK  327  A    between atoms: _793  and  _794
REMARK                            x       y       z     vdW  Elec       q    Type
REMARK                         _______ _______ _______ _____ _____    ______ ____
ROOT
ATOM      1  CA  ILE A   2      93.120   4.770  -1.364  0.00  0.00    +0.148 C 
ENDROOT
BRANCH   1   4
ATOM      2  C   ASP A   1      91.618   3.047  -0.499  0.00  0.00    +0.239 C 
ATOM      3  O   ASP A   1      92.541   2.275  -0.242  0.00  0.00    -0.274 OA
ATOM      4  N   ILE A   2      91.809   4.268  -0.979  0.00  0.00    -0.297 N 
ATOM      5  H   ILE A   2      90.986   4.895  -1.085  0.00  0.00    +0.150 HD
BRANCH   2   6
ATOM      6  CA  ASP A   1      90.176   2.610  -0.258  0.00  0.00    +0.156 C 
BRANCH   6   7
ATOM      7  N   ASP A   1      90.022   1.258  -0.808  0.00  0.00    -0.238 NA
ATOM      8  H   ASP A   1      90.473   0.462  -0.313  0.00  0.00    +0.142 HD
ENDBRANCH   6   7
BRANCH   6   9
ATOM      9  CB  ASP A   1      89.943   2.607   1.237  0.00  0.00    +0.140 C 
BRANCH   9  10
ATOM     10  CG  ASP A   1      88.493   2.670   1.624  0.00  0.00    +0.367 C 
ATOM     11  OD2 ASP A   1      88.090   1.780   2.379  0.00  0.00    -0.246 OA
ATOM     12  OD1 ASP A   1      87.771   3.603   1.218  0.00  0.00    -0.246 OA
ENDBRANCH   9  10
ENDBRANCH   6   9
ENDBRANCH   2   6
ENDBRANCH   1   4
BRANCH   1  13
ATOM     13  C   ILE A   2      93.362   6.041  -0.564  0.00  0.00    +0.241 C 
ATOM     14  N   ILE A   3      94.068   5.933   0.559  0.00  0.00    -0.297 N 
ATOM     15  H   ILE A   3      94.574   5.047   0.762  0.00  0.00    +0.150 HD
ATOM     16  O   ILE A   2      92.913   7.107  -0.959  0.00  0.00    -0.273 OA
BRANCH  14  17
ATOM     17  CA  ILE A   3      94.144   7.043   1.515  0.00  0.00    +0.149 C 
BRANCH  17  18
ATOM     18  C   ILE A   3      95.201   8.103   1.153  0.00  0.00    +0.241 C 
ATOM     19  O   ILE A   3      94.933   9.311   1.260  0.00  0.00    -0.273 OA
ATOM     20  N   GLY A   4      96.381   7.692   0.733  0.00  0.00    -0.296 N 
ATOM     21  H   GLY A   4      96.520   6.681   0.533  0.00  0.00    +0.150 HD
BRANCH  20  22
ATOM     22  CA  GLY A   4      97.497   8.609   0.540  0.00  0.00    +0.163 C 
BRANCH  22  23
ATOM     23  C   GLY A   4      97.181   9.820  -0.320  0.00  0.00    +0.229 C 
ATOM     24  O   GLY A   4      97.438  10.962   0.073  0.00  0.00    -0.286 OA
ENDBRANCH  22  23
ENDBRANCH  20  22
ENDBRANCH  17  18
BRANCH  17  25
ATOM     25  CB  ILE A   3      94.383   6.510   2.948  0.00  0.00    +0.027 C 
ATOM     26  CG2 ILE A   3      94.456   7.666   3.956  0.00  0.00    +0.002 C 
BRANCH  25  27
ATOM     27  CG1 ILE A   3      93.306   5.478   3.337  0.00  0.00    +0.002 C 
ATOM     28  CD1 ILE A   3      91.870   5.943   3.191  0.00  0.00    +0.000 C 
ENDBRANCH  25  27
ENDBRANCH  17  25
ENDBRANCH  14  17
ENDBRANCH   1  13
BRANCH   1  29
ATOM     29  CB  ILE A   2      93.232   5.102  -2.873  0.00  0.00    +0.027 C 
ATOM     30  CG2 ILE A   2      94.697   5.238  -3.268  0.00  0.00    +0.002 C 
BRANCH  29  31
ATOM     31  CG1 ILE A   2      92.561   4.038  -3.761  0.00  0.00    +0.002 C 
ATOM     32  CD1 ILE A   2      93.175   2.704  -3.699  0.00  0.00    +0.000 C 
ENDBRANCH  29  31
ENDBRANCH   1  29
TORSDOF 14
REMARK  Name = ../refined-set-2016/4omj/4omj_pocket.pdb
REMARK  327 active torsions:
REMARK  status: ('A' for Active; 'I' for Inactive)
REMARK    1  A    between atoms: _1  and  _3
REMARK    2  A    between atoms: _3  and  _4
REMARK    3  A    between atoms: _3  and  _6
REMARK    4  A    between atoms: _6  and  _7
REMARK    5  A    between atoms: _10  and  _12
REMARK    6  A    between atoms: _12  and  _13
REMARK    7  A    between atoms: _12  and  _15
REMARK    8  A    between atoms: _15  and  _16
REMARK    9  A    between atoms: _21  and  _22
REMARK   10  A    between atoms: _24  and  _26
REMARK   11  A    between atoms: _26  and  _27
REMARK   12  A    between atoms: _26  and  _29
REMARK   13  A    between atoms: _29  and  _30
REMARK   14  A    between atoms: _33  and  _35
REMARK   15  A    between atoms: _35  and  _36
REMARK   16  A    between atoms: _35  and  _38
REMARK   17  A    between atoms: _38  and  _39
REMARK   18  A    between atoms: _41  and  _43
REMARK   19  A    between atoms: _43  and  _44
REMARK   20  A    between atoms: _43  and  _46
REMARK   21  A    between atoms: _46  and  _47
REMARK   22  A    between atoms: _57  and  _59
REMARK   23  A    between atoms: _59  and  _60
REMARK   24  A    between atoms: _59  and  _62
REMARK   25  A    between atoms: _62  and  _63
REMARK   26  A    between atoms: _66  and  _68
REMARK   27  A    between atoms: _68  and  _69
REMARK   28  A    between atoms: _68  and  _71
REMARK   29  A    between atoms: _71  and  _72
REMARK   30  A    between atoms: _75  and  _77
REMARK   31  A    between atoms: _77  and  _78
REMARK   32  A    between atoms: _77  and  _80
REMARK   33  A    between atoms: _80  and  _81
REMARK   34  A    between atoms: _84  and  _86
REMARK   35  A    between atoms: _86  and  _87
REMARK   36  A    between atoms: _89  and  _91
REMARK   37  A    between atoms: _91  and  _92
REMARK   38  A    between atoms: _91  and  _94
REMARK   39  A    between atoms: _94  and  _95
REMARK   40  A    between atoms: _98  and  _100
REMARK   41  A    between atoms: _100  and  _101
REMARK   42  A    between atoms: _100  and  _103
REMARK   43  A    between atoms: _103  and  _104
REMARK   44  A    between atoms: _107  and  _109
REMARK   45  A    between atoms: _109  and  _110
REMARK   46  A    between atoms: _113  and  _115
REMARK   47  A    between atoms: _115  and  _116
REMARK   48  A    between atoms: _115  and  _118
REMARK   49  A    between atoms: _118  and  _119
REMARK   50  A    between atoms: _119  and  _120
REMARK   51  A    between atoms: _120  and  _121
REMARK   52  A    between atoms: _121  and  _122
REMARK   53  A    between atoms: _126  and  _128
REMARK   54  A    between atoms: _128  and  _129
REMARK   55  A    between atoms: _131  and  _133
REMARK   56  A    between atoms: _133  and  _134
REMARK   57  A    between atoms: _133  and  _136
REMARK   58  A    between atoms: _136  and  _137
REMARK   59  A    between atoms: _140  and  _142
REMARK   60  A    between atoms: _142  and  _143
REMARK   61  A    between atoms: _142  and  _145
REMARK   62  A    between atoms: _145  and  _146
REMARK   63  A    between atoms: _149  and  _151
REMARK   64  A    between atoms: _151  and  _152
REMARK   65  A    between atoms: _151  and  _154
REMARK   66  A    between atoms: _154  and  _155
REMARK   67  A    between atoms: _161  and  _163
REMARK   68  A    between atoms: _163  and  _164
REMARK   69  A    between atoms: _167  and  _169
REMARK   70  A    between atoms: _169  and  _170
REMARK   71  A    between atoms: _169  and  _172
REMARK   72  A    between atoms: _172  and  _173
REMARK   73  A    between atoms: _175  and  _177
REMARK   74  A    between atoms: _177  and  _178
REMARK   75  A    between atoms: _177  and  _180
REMARK   76  A    between atoms: _180  and  _181
REMARK   77  A    between atoms: _181  and  _182
REMARK   78  A    between atoms: _182  and  _183
REMARK   79  A    between atoms: _183  and  _184
REMARK   80  A    between atoms: _188  and  _190
REMARK   81  A    between atoms: _190  and  _191
REMARK   82  A    between atoms: _190  and  _193
REMARK   83  A    between atoms: _193  and  _194
REMARK   84  A    between atoms: _194  and  _195
REMARK   85  A    between atoms: _200  and  _202
REMARK   86  A    between atoms: _202  and  _203
REMARK   87  A    between atoms: _202  and  _205
REMARK   88  A    between atoms: _205  and  _206
REMARK   89  A    between atoms: _209  and  _211
REMARK   90  A    between atoms: _211  and  _212
REMARK   91  A    between atoms: _211  and  _214
REMARK   92  A    between atoms: _214  and  _215
REMARK   93  A    between atoms: _218  and  _220
REMARK   94  A    between atoms: _220  and  _221
REMARK   95  A    between atoms: _220  and  _223
REMARK   96  A    between atoms: _223  and  _224
REMARK   97  A    between atoms: _227  and  _229
REMARK   98  A    between atoms: _229  and  _230
REMARK   99  A    between atoms: _229  and  _232
REMARK  100  A    between atoms: _232  and  _233
REMARK  101  A    between atoms: _233  and  _234
REMARK  102  A    between atoms: _234  and  _235
REMARK  103  A    between atoms: _244  and  _246
REMARK  104  A    between atoms: _246  and  _247
REMARK  105  A    between atoms: _246  and  _249
REMARK  106  A    between atoms: _249  and  _250
REMARK  107  A    between atoms: _253  and  _255
REMARK  108  A    between atoms: _255  and  _256
REMARK  109  A    between atoms: _255  and  _258
REMARK  110  A    between atoms: _258  and  _259
REMARK  111  A    between atoms: _259  and  _260
REMARK  112  A    between atoms: _260  and  _261
REMARK  113  A    between atoms: _261  and  _262
REMARK  114  A    between atoms: _266  and  _268
REMARK  115  A    between atoms: _268  and  _269
REMARK  116  A    between atoms: _268  and  _271
REMARK  117  A    between atoms: _271  and  _272
REMARK  118  A    between atoms: _272  and  _273
REMARK  119  A    between atoms: _275  and  _277
REMARK  120  A    between atoms: _277  and  _278
REMARK  121  A    between atoms: _277  and  _280
REMARK  122  A    between atoms: _280  and  _281
REMARK  123  A    between atoms: _281  and  _282
REMARK  124  A    between atoms: _285  and  _287
REMARK  125  A    between atoms: _287  and  _288
REMARK  126  A    between atoms: _287  and  _290
REMARK  127  A    between atoms: _292  and  _294
REMARK  128  A    between atoms: _294  and  _295
REMARK  129  A    between atoms: _294  and  _297
REMARK  130  A    between atoms: _297  and  _298
REMARK  131  A    between atoms: _301  and  _303
REMARK  132  A    between atoms: _303  and  _304
REMARK  133  A    between atoms: _303  and  _306
REMARK  134  A    between atoms: _306  and  _307
REMARK  135  A    between atoms: _310  and  _312
REMARK  136  A    between atoms: _312  and  _313
REMARK  137  A    between atoms: _312  and  _315
REMARK  138  A    between atoms: _315  and  _316
REMARK  139  A    between atoms: _319  and  _321
REMARK  140  A    between atoms: _321  and  _322
REMARK  141  A    between atoms: _321  and  _324
REMARK  142  A    between atoms: _324  and  _325
REMARK  143  A    between atoms: _330  and  _331
REMARK  144  A    between atoms: _333  and  _335
REMARK  145  A    between atoms: _335  and  _336
REMARK  146  A    between atoms: _335  and  _338
REMARK  147  A    between atoms: _338  and  _339
REMARK  148  A    between atoms: _342  and  _344
REMARK  149  A    between atoms: _344  and  _345
REMARK  150  A    between atoms: _344  and  _347
REMARK  151  A    between atoms: _349  and  _351
REMARK  152  A    between atoms: _351  and  _352
REMARK  153  A    between atoms: _351  and  _354
REMARK  154  A    between atoms: _354  and  _355
REMARK  155  A    between atoms: _358  and  _360
REMARK  156  A    between atoms: _360  and  _361
REMARK  157  A    between atoms: _363  and  _365
REMARK  158  A    between atoms: _365  and  _366
REMARK  159  A    between atoms: _365  and  _368
REMARK  160  A    between atoms: _368  and  _369
REMARK  161  A    between atoms: _369  and  _370
REMARK  162  A    between atoms: _370  and  _371
REMARK  163  A    between atoms: _371  and  _372
REMARK  164  A    between atoms: _376  and  _378
REMARK  165  A    between atoms: _378  and  _379
REMARK  166  A    between atoms: _378  and  _381
REMARK  167  A    between atoms: _381  and  _382
REMARK  168  A    between atoms: _387  and  _389
REMARK  169  A    between atoms: _389  and  _390
REMARK  170  A    between atoms: _389  and  _392
REMARK  171  A    between atoms: _392  and  _393
REMARK  172  A    between atoms: _396  and  _398
REMARK  173  A    between atoms: _398  and  _399
REMARK  174  A    between atoms: _398  and  _401
REMARK  175  A    between atoms: _401  and  _402
REMARK  176  A    between atoms: _412  and  _414
REMARK  177  A    between atoms: _414  and  _415
REMARK  178  A    between atoms: _414  and  _417
REMARK  179  A    between atoms: _417  and  _418
REMARK  180  A    between atoms: _418  and  _419
REMARK  181  A    between atoms: _419  and  _420
REMARK  182  A    between atoms: _420  and  _421
REMARK  183  A    between atoms: _426  and  _427
REMARK  184  A    between atoms: _432  and  _434
REMARK  185  A    between atoms: _434  and  _435
REMARK  186  A    between atoms: _438  and  _440
REMARK  187  A    between atoms: _440  and  _441
REMARK  188  A    between atoms: _440  and  _443
REMARK  189  A    between atoms: _446  and  _448
REMARK  190  A    between atoms: _448  and  _449
REMARK  191  A    between atoms: _448  and  _451
REMARK  192  A    between atoms: _451  and  _452
REMARK  193  A    between atoms: _452  and  _453
REMARK  194  A    between atoms: _456  and  _458
REMARK  195  A    between atoms: _458  and  _459
REMARK  196  A    between atoms: _462  and  _464
REMARK  197  A    between atoms: _464  and  _465
REMARK  198  A    between atoms: _464  and  _467
REMARK  199  A    between atoms: _467  and  _468
REMARK  200  A    between atoms: _473  and  _474
REMARK  201  A    between atoms: _476  and  _478
REMARK  202  A    between atoms: _478  and  _479
REMARK  203  A    between atoms: _481  and  _483
REMARK  204  A    between atoms: _483  and  _484
REMARK  205  A    between atoms: _483  and  _486
REMARK  206  A    between atoms: _486  and  _487
REMARK  207  A    between atoms: _487  and  _488
REMARK  208  A    between atoms: _491  and  _493
REMARK  209  A    between atoms: _493  and  _494
REMARK  210  A    between atoms: _493  and  _496
REMARK  211  A    between atoms: _496  and  _497
REMARK  212  A    between atoms: _503  and  _505
REMARK  213  A    between atoms: _505  and  _506
REMARK  214  A    between atoms: _505  and  _508
REMARK  215  A    between atoms: _508  and  _509
REMARK  216  A    between atoms: _512  and  _514
REMARK  217  A    between atoms: _514  and  _515
REMARK  218  A    between atoms: _514  and  _517
REMARK  219  A    between atoms: _519  and  _521
REMARK  220  A    between atoms: _521  and  _522
REMARK  221  A    between atoms: _521  and  _524
REMARK  222  A    between atoms: _524  and  _525
REMARK  223  A    between atoms: _531  and  _533
REMARK  224  A    between atoms: _533  and  _534
REMARK  225  A    between atoms: _533  and  _536
REMARK  226  A    between atoms: _536  and  _537
REMARK  227  A    between atoms: _537  and  _538
REMARK  228  A    between atoms: _541  and  _543
REMARK  229  A    between atoms: _543  and  _544
REMARK  230  A    between atoms: _543  and  _546
REMARK  231  A    between atoms: _546  and  _547
REMARK  232  A    between atoms: _550  and  _552
REMARK  233  A    between atoms: _552  and  _553
REMARK  234  A    between atoms: _552  and  _555
REMARK  235  A    between atoms: _555  and  _556
REMARK  236  A    between atoms: _556  and  _557
REMARK  237  A    between atoms: _557  and  _558
REMARK  238  A    between atoms: _567  and  _569
REMARK  239  A    between atoms: _569  and  _570
REMARK  240  A    between atoms: _569  and  _572
REMARK  241  A    between atoms: _572  and  _573
REMARK  242  A    between atoms: _576  and  _578
REMARK  243  A    between atoms: _578  and  _579
REMARK  244  A    between atoms: _578  and  _581
REMARK  245  A    between atoms: _581  and  _582
REMARK  246  A    between atoms: _588  and  _590
REMARK  247  A    between atoms: _590  and  _591
REMARK  248  A    between atoms: _590  and  _593
REMARK  249  A    between atoms: _596  and  _598
REMARK  250  A    between atoms: _598  and  _599
REMARK  251  A    between atoms: _603  and  _604
REMARK  252  A    between atoms: _609  and  _611
REMARK  253  A    between atoms: _611  and  _612
REMARK  254  A    between atoms: _611  and  _614
REMARK  255  A    between atoms: _614  and  _615
REMARK  256  A    between atoms: _618  and  _620
REMARK  257  A    between atoms: _620  and  _621
REMARK  258  A    between atoms: _620  and  _623
REMARK  259  A    between atoms: _623  and  _624
REMARK  260  A    between atoms: _631  and  _632
REMARK  261  A    between atoms: _637  and  _639
REMARK  262  A    between atoms: _639  and  _640
REMARK  263  A    between atoms: _639  and  _642
REMARK  264  A    between atoms: _645  and  _647
REMARK  265  A    between atoms: _647  and  _648
REMARK  266  A    between atoms: _651  and  _653
REMARK  267  A    between atoms: _653  and  _654
REMARK  268  A    between atoms: _653  and  _656
REMARK  269  A    between atoms: _656  and  _657
REMARK  270  A    between atoms: _662  and  _663
REMARK  271  A    between atoms: _665  and  _667
REMARK  272  A    between atoms: _667  and  _668
REMARK  273  A    between atoms: _667  and  _670
REMARK  274  A    between atoms: _670  and  _671
REMARK  275  A    between atoms: _676  and  _678
REMARK  276  A    between atoms: _678  and  _679
REMARK  277  A    between atoms: _678  and  _681
REMARK  278  A    between atoms: _681  and  _682
REMARK  279  A    between atoms: _685  and  _687
REMARK  280  A    between atoms: _687  and  _688
REMARK  281  A    between atoms: _687  and  _690
REMARK  282  A    between atoms: _690  and  _691
REMARK  283  A    between atoms: _694  and  _696
REMARK  284  A    between atoms: _696  and  _697
REMARK  285  A    between atoms: _696  and  _699
REMARK  286  A    between atoms: _699  and  _700
REMARK  287  A    between atoms: _700  and  _701
REMARK  288  A    between atoms: _701  and  _702
REMARK  289  A    between atoms: _702  and  _703
REMARK  290  A    between atoms: _707  and  _709
REMARK  291  A    between atoms: _709  and  _710
REMARK  292  A    between atoms: _709  and  _712
REMARK  293  A    between atoms: _712  and  _713
REMARK  294  A    between atoms: _719  and  _721
REMARK  295  A    between atoms: _721  and  _722
REMARK  296  A    between atoms: _721  and  _724
REMARK  297  A    between atoms: _724  and  _725
REMARK  298  A    between atoms: _728  and  _730
REMARK  299  A    between atoms: _730  and  _731
REMARK  300  A    between atoms: _730  and  _733
REMARK  301  A    between atoms: _733  and  _734
REMARK  302  A    between atoms: _736  and  _738
REMARK  303  A    between atoms: _738  and  _739
REMARK  304  A    between atoms: _738  and  _741
REMARK  305  A    between atoms: _741  and  _742
REMARK  306  A    between atoms: _745  and  _747
REMARK  307  A    between atoms: _747  and  _748
REMARK  308  A    between atoms: _747  and  _750
REMARK  309  A    between atoms: _750  and  _751
REMARK  310  A    between atoms: _751  and  _752
REMARK  311  A    between atoms: _752  and  _753
REMARK  312  A    between atoms: _762  and  _764
REMARK  313  A    between atoms: _764  and  _765
REMARK  314  A    between atoms: _764  and  _767
REMARK  315  A    between atoms: _767  and  _768
REMARK  316  A    between atoms: _771  and  _773
REMARK  317  A    between atoms: _773  and  _774
REMARK  318  A    between atoms: _773  and  _776
REMARK  319  A    between atoms: _776  and  _777
REMARK  320  A    between atoms: _777  and  _778
REMARK  321  A    between atoms: _780  and  _782
REMARK  322  A    between atoms: _782  and  _783
REMARK  323  A    between atoms: _782  and  _785
REMARK  324  A    between atoms: _788  and  _790
REMARK  325  A    between atoms: _790  and  _791
REMARK  326  A    between atoms: _790  and  _793
REMARK  327  A    between atoms: _793  and  _794
REMARK                            x       y       z     vdW  Elec       q    Type
REMARK                         _______ _______ _______ _____ _____    ______ ____
ROOT
ATOM      1  C   LYS A   4      90.782  19.965   2.114  0.00  0.00    +0.241 C 
ATOM      2  O   LYS A   4      89.799  20.705   2.251  0.00  0.00    -0.273 OA
ATOM      3  N   GLY A   5      91.254  19.651   0.920  0.00  0.00    -0.295 N 
ATOM      4  H   GLY A   5      92.083  19.028   0.848  0.00  0.00    +0.150 HD
ENDROOT
BRANCH   3   5
ATOM      5  CA  GLY A   5      90.643  20.155  -0.286  0.00  0.00    +0.176 C 
BRANCH   5   6
ATOM      6  C   GLY A   5      89.193  19.719  -0.385  0.00  0.00    +0.243 C 
ATOM      7  N   LEU A   6      88.910  18.482   0.009  0.00  0.00    -0.297 N 
ATOM      8  H   LEU A   6      89.668  17.861   0.358  0.00  0.00    +0.150 HD
ATOM      9  O   GLY A   5      88.337  20.485  -0.832  0.00  0.00    -0.273 OA
BRANCH   7  10
ATOM     10  CA  LEU A   6      87.541  17.996  -0.047  0.00  0.00    +0.149 C 
BRANCH  10  11
ATOM     11  C   LEU A   6      86.642  18.756   0.915  0.00  0.00    +0.241 C 
ATOM     12  N   LEU A   7      87.094  18.936   2.152  0.00  0.00    -0.297 N 
ATOM     13  H   LEU A   7      88.024  18.561   2.429  0.00  0.00    +0.150 HD
ATOM     14  O   LEU A   6      85.551  19.170   0.545  0.00  0.00    -0.273 OA
BRANCH  12  15
ATOM     15  CA  LEU A   7      86.277  19.664   3.122  0.00  0.00    +0.149 C 
BRANCH  15  16
ATOM     16  C   LEU A   7      86.147  21.141   2.776  0.00  0.00    +0.241 C 
ATOM     17  O   LEU A   7      85.179  21.766   3.208  0.00  0.00    -0.273 OA
ATOM     18  N   PHE A   8      87.073  21.685   1.998  0.00  0.00    -0.298 N 
ATOM     19  H   PHE A   8      87.888  21.116   1.691  0.00  0.00    +0.150 HD
BRANCH  18  20
ATOM     20  CA  PHE A   8      86.958  23.078   1.569  0.00  0.00    +0.141 C 
BRANCH  20  21
ATOM     21  C   PHE A   8      86.133  23.219   0.292  0.00  0.00    +0.227 C 
ATOM     22  O   PHE A   8      85.826  24.336  -0.113  0.00  0.00    -0.286 OA
ENDBRANCH  20  21
BRANCH  20  23
ATOM     23  CB  PHE A   8      88.334  23.724   1.354  0.00  0.00    +0.054 C 
BRANCH  23  24
ATOM     24  CG  PHE A   8      89.096  24.018   2.621  0.00  0.00    -0.020 A 
ATOM     25  CD2 PHE A   8      88.496  23.934   3.867  0.00  0.00    -0.004 A 
ATOM     26  CE2 PHE A   8      89.216  24.201   5.021  0.00  0.00    -0.000 A 
ATOM     27  CZ  PHE A   8      90.545  24.556   4.933  0.00  0.00    -0.000 A 
ATOM     28  CE1 PHE A   8      91.153  24.647   3.705  0.00  0.00    -0.000 A 
ATOM     29  CD1 PHE A   8      90.430  24.379   2.554  0.00  0.00    -0.004 A 
ENDBRANCH  23  24
ENDBRANCH  20  23
ENDBRANCH  18  20
ENDBRANCH  15  16
BRANCH  15  30
ATOM     30  CB  LEU A   7      86.791  19.454   4.533  0.00  0.00    +0.029 C 
BRANCH  30  31
ATOM     31  CG  LEU A   7      86.461  18.057   5.090  0.00  0.00    +0.002 C 
ATOM     32  CD2 LEU A   7      87.189  17.815   6.400  0.00  0.00    +0.000 C 
ATOM     33  CD1 LEU A   7      84.980  17.900   5.303  0.00  0.00    +0.000 C 
ENDBRANCH  30  31
ENDBRANCH  15  30
ENDBRANCH  12  15
ENDBRANCH  10  11
BRANCH  10  34
ATOM     34  CB  LEU A   6      87.466  16.495   0.238  0.00  0.00    +0.029 C 
BRANCH  34  35
ATOM     35  CG  LEU A   6      87.901  15.658  -0.948  0.00  0.00    +0.002 C 
ATOM     36  CD2 LEU A   6      88.144  14.214  -0.493  0.00  0.00    +0.000 C 
ATOM     37  CD1 LEU A   6      86.868  15.686  -2.059  0.00  0.00    +0.000 C 
ENDBRANCH  34  35
ENDBRANCH  10  34
ENDBRANCH   7  10
ENDBRANCH   5   6
ENDBRANCH   3   5
BRANCH   1  38
ATOM     38  CA  LYS A   4      91.493  19.346   3.324  0.00  0.00    +0.149 C 
BRANCH  38  40
ATOM     39  C   ALA A   3      90.688  17.093   3.052  0.00  0.00    +0.241 C 
ATOM     40  N   LYS A   4      91.709  17.920   3.168  0.00  0.00    -0.297 N 
ATOM     41  H   LYS A   4      92.679  17.546   3.147  0.00  0.00    +0.150 HD
ATOM     42  O   ALA A   3      89.522  17.491   3.102  0.00  0.00    -0.273 OA
BRANCH  39  43
ATOM     43  CA  ALA A   3      91.007  15.616   2.819  0.00  0.00    +0.149 C 
ATOM     44  CB  ALA A   3      91.323  14.899   4.133  0.00  0.00    +0.031 C 
BRANCH  43  46
ATOM     45  C   ASP A   2      91.994  15.928   0.634  0.00  0.00    +0.241 C 
ATOM     46  N   ALA A   3      92.110  15.472   1.876  0.00  0.00    -0.297 N 
ATOM     47  H   ALA A   3      92.992  15.010   2.177  0.00  0.00    +0.150 HD
ATOM     48  O   ASP A   2      91.000  16.523   0.256  0.00  0.00    -0.273 OA
BRANCH  45  49
ATOM     49  CA  ASP A   2      93.117  15.571  -0.332  0.00  0.00    +0.160 C 
BRANCH  49  52
ATOM     50  C   LEU A   1      93.481  13.143  -0.165  0.00  0.00    +0.238 C 
ATOM     51  O   LEU A   1      94.266  13.272   0.771  0.00  0.00    -0.274 OA
ATOM     52  N   ASP A   2      92.897  14.189  -0.755  0.00  0.00    -0.297 N 
ATOM     53  H   ASP A   2      92.255  14.012  -1.554  0.00  0.00    +0.150 HD
BRANCH  50  54
ATOM     54  CA  LEU A   1      93.147  11.757  -0.744  0.00  0.00    +0.145 C 
BRANCH  54  55
ATOM     55  N   LEU A   1      94.364  11.086  -1.112  0.00  0.00    -0.238 NA
ATOM     56  H   LEU A   1      94.680  10.268  -0.552  0.00  0.00    +0.142 HD
ENDBRANCH  54  55
BRANCH  54  57
ATOM     57  CB  LEU A   1      92.395  10.893   0.268  0.00  0.00    +0.026 C 
BRANCH  57  58
ATOM     58  CG  LEU A   1      90.965  11.193   0.601  0.00  0.00    +0.002 C 
ATOM     59  CD2 LEU A   1      90.521  10.162   1.631  0.00  0.00    +0.000 C 
ATOM     60  CD1 LEU A   1      90.104  11.141  -0.636  0.00  0.00    +0.000 C 
ENDBRANCH  57  58
ENDBRANCH  54  57
ENDBRANCH  50  54
ENDBRANCH  49  52
BRANCH  49  61
ATOM     61  CB  ASP A   2      93.094  16.495  -1.570  0.00  0.00    +0.143 C 
BRANCH  61  62
ATOM     62  CG  ASP A   2      93.426  17.940  -1.252  0.00  0.00    +0.367 C 
ATOM     63  OD2 ASP A   2      93.673  18.284  -0.068  0.00  0.00    -0.246 OA
ATOM     64  OD1 ASP A   2      93.424  18.741  -2.218  0.00  0.00    -0.246 OA
ENDBRANCH  61  62
ENDBRANCH  49  61
ENDBRANCH  45  49
ENDBRANCH  43  46
ENDBRANCH  39  43
ENDBRANCH  38  40
BRANCH  38  65
ATOM     65  CB  LYS A   4      92.824  20.023   3.577  0.00  0.00    +0.029 C 
BRANCH  65  66
ATOM     66  CG  LYS A   4      92.723  21.316   4.261  0.00  0.00    +0.000 C 
BRANCH  66  67
ATOM     67  CD  LYS A   4      93.961  21.558   5.123  0.00  0.00    -0.024 C 
BRANCH  67  68
ATOM     68  CE  LYS A   4      93.951  22.942   5.755  0.00  0.00    -0.086 C 
BRANCH  68  69
ATOM     69  NZ  LYS A   4      95.101  23.129   6.700  0.00  0.00    +0.380 N 
ATOM     70  HZ1 LYS A   4      95.042  22.421   7.460  0.00  0.00    -0.089 HD
ATOM     71  HZ2 LYS A   4      95.059  24.084   7.110  0.00  0.00    -0.089 HD
ATOM     72  HZ3 LYS A   4      95.996  23.011   6.183  0.00  0.00    -0.089 HD
ENDBRANCH  68  69
ENDBRANCH  67  68
ENDBRANCH  66  67
ENDBRANCH  65  66
ENDBRANCH  38  65
ENDBRANCH   1  38
TORSDOF 31
REMARK  Name = ../refined-set-2016/4omj/4omj_pocket.pdb
REMARK  327 active torsions:
REMARK  status: ('A' for Active; 'I' for Inactive)
REMARK    1  A    between atoms: _1  and  _3
REMARK    2  A    between atoms: _3  and  _4
REMARK    3  A    between atoms: _3  and  _6
REMARK    4  A    between atoms: _6  and  _7
REMARK    5  A    between atoms: _10  and  _12
REMARK    6  A    between atoms: _12  and  _13
REMARK    7  A    between atoms: _12  and  _15
REMARK    8  A    between atoms: _15  and  _16
REMARK    9  A    between atoms: _21  and  _22
REMARK   10  A    between atoms: _24  and  _26
REMARK   11  A    between atoms: _26  and  _27
REMARK   12  A    between atoms: _26  and  _29
REMARK   13  A    between atoms: _29  and  _30
REMARK   14  A    between atoms: _33  and  _35
REMARK   15  A    between atoms: _35  and  _36
REMARK   16  A    between atoms: _35  and  _38
REMARK   17  A    between atoms: _38  and  _39
REMARK   18  A    between atoms: _41  and  _43
REMARK   19  A    between atoms: _43  and  _44
REMARK   20  A    between atoms: _43  and  _46
REMARK   21  A    between atoms: _46  and  _47
REMARK   22  A    between atoms: _57  and  _59
REMARK   23  A    between atoms: _59  and  _60
REMARK   24  A    between atoms: _59  and  _62
REMARK   25  A    between atoms: _62  and  _63
REMARK   26  A    between atoms: _66  and  _68
REMARK   27  A    between atoms: _68  and  _69
REMARK   28  A    between atoms: _68  and  _71
REMARK   29  A    between atoms: _71  and  _72
REMARK   30  A    between atoms: _75  and  _77
REMARK   31  A    between atoms: _77  and  _78
REMARK   32  A    between atoms: _77  and  _80
REMARK   33  A    between atoms: _80  and  _81
REMARK   34  A    between atoms: _84  and  _86
REMARK   35  A    between atoms: _86  and  _87
REMARK   36  A    between atoms: _89  and  _91
REMARK   37  A    between atoms: _91  and  _92
REMARK   38  A    between atoms: _91  and  _94
REMARK   39  A    between atoms: _94  and  _95
REMARK   40  A    between atoms: _98  and  _100
REMARK   41  A    between atoms: _100  and  _101
REMARK   42  A    between atoms: _100  and  _103
REMARK   43  A    between atoms: _103  and  _104
REMARK   44  A    between atoms: _107  and  _109
REMARK   45  A    between atoms: _109  and  _110
REMARK   46  A    between atoms: _113  and  _115
REMARK   47  A    between atoms: _115  and  _116
REMARK   48  A    between atoms: _115  and  _118
REMARK   49  A    between atoms: _118  and  _119
REMARK   50  A    between atoms: _119  and  _120
REMARK   51  A    between atoms: _120  and  _121
REMARK   52  A    between atoms: _121  and  _122
REMARK   53  A    between atoms: _126  and  _128
REMARK   54  A    between atoms: _128  and  _129
REMARK   55  A    between atoms: _131  and  _133
REMARK   56  A    between atoms: _133  and  _134
REMARK   57  A    between atoms: _133  and  _136
REMARK   58  A    between atoms: _136  and  _137
REMARK   59  A    between atoms: _140  and  _142
REMARK   60  A    between atoms: _142  and  _143
REMARK   61  A    between atoms: _142  and  _145
REMARK   62  A    between atoms: _145  and  _146
REMARK   63  A    between atoms: _149  and  _151
REMARK   64  A    between atoms: _151  and  _152
REMARK   65  A    between atoms: _151  and  _154
REMARK   66  A    between atoms: _154  and  _155
REMARK   67  A    between atoms: _161  and  _163
REMARK   68  A    between atoms: _163  and  _164
REMARK   69  A    between atoms: _167  and  _169
REMARK   70  A    between atoms: _169  and  _170
REMARK   71  A    between atoms: _169  and  _172
REMARK   72  A    between atoms: _172  and  _173
REMARK   73  A    between atoms: _175  and  _177
REMARK   74  A    between atoms: _177  and  _178
REMARK   75  A    between atoms: _177  and  _180
REMARK   76  A    between atoms: _180  and  _181
REMARK   77  A    between atoms: _181  and  _182
REMARK   78  A    between atoms: _182  and  _183
REMARK   79  A    between atoms: _183  and  _184
REMARK   80  A    between atoms: _188  and  _190
REMARK   81  A    between atoms: _190  and  _191
REMARK   82  A    between atoms: _190  and  _193
REMARK   83  A    between atoms: _193  and  _194
REMARK   84  A    between atoms: _194  and  _195
REMARK   85  A    between atoms: _200  and  _202
REMARK   86  A    between atoms: _202  and  _203
REMARK   87  A    between atoms: _202  and  _205
REMARK   88  A    between atoms: _205  and  _206
REMARK   89  A    between atoms: _209  and  _211
REMARK   90  A    between atoms: _211  and  _212
REMARK   91  A    between atoms: _211  and  _214
REMARK   92  A    between atoms: _214  and  _215
REMARK   93  A    between atoms: _218  and  _220
REMARK   94  A    between atoms: _220  and  _221
REMARK   95  A    between atoms: _220  and  _223
REMARK   96  A    between atoms: _223  and  _224
REMARK   97  A    between atoms: _227  and  _229
REMARK   98  A    between atoms: _229  and  _230
REMARK   99  A    between atoms: _229  and  _232
REMARK  100  A    between atoms: _232  and  _233
REMARK  101  A    between atoms: _233  and  _234
REMARK  102  A    between atoms: _234  and  _235
REMARK  103  A    between atoms: _244  and  _246
REMARK  104  A    between atoms: _246  and  _247
REMARK  105  A    between atoms: _246  and  _249
REMARK  106  A    between atoms: _249  and  _250
REMARK  107  A    between atoms: _253  and  _255
REMARK  108  A    between atoms: _255  and  _256
REMARK  109  A    between atoms: _255  and  _258
REMARK  110  A    between atoms: _258  and  _259
REMARK  111  A    between atoms: _259  and  _260
REMARK  112  A    between atoms: _260  and  _261
REMARK  113  A    between atoms: _261  and  _262
REMARK  114  A    between atoms: _266  and  _268
REMARK  115  A    between atoms: _268  and  _269
REMARK  116  A    between atoms: _268  and  _271
REMARK  117  A    between atoms: _271  and  _272
REMARK  118  A    between atoms: _272  and  _273
REMARK  119  A    between atoms: _275  and  _277
REMARK  120  A    between atoms: _277  and  _278
REMARK  121  A    between atoms: _277  and  _280
REMARK  122  A    between atoms: _280  and  _281
REMARK  123  A    between atoms: _281  and  _282
REMARK  124  A    between atoms: _285  and  _287
REMARK  125  A    between atoms: _287  and  _288
REMARK  126  A    between atoms: _287  and  _290
REMARK  127  A    between atoms: _292  and  _294
REMARK  128  A    between atoms: _294  and  _295
REMARK  129  A    between atoms: _294  and  _297
REMARK  130  A    between atoms: _297  and  _298
REMARK  131  A    between atoms: _301  and  _303
REMARK  132  A    between atoms: _303  and  _304
REMARK  133  A    between atoms: _303  and  _306
REMARK  134  A    between atoms: _306  and  _307
REMARK  135  A    between atoms: _310  and  _312
REMARK  136  A    between atoms: _312  and  _313
REMARK  137  A    between atoms: _312  and  _315
REMARK  138  A    between atoms: _315  and  _316
REMARK  139  A    between atoms: _319  and  _321
REMARK  140  A    between atoms: _321  and  _322
REMARK  141  A    between atoms: _321  and  _324
REMARK  142  A    between atoms: _324  and  _325
REMARK  143  A    between atoms: _330  and  _331
REMARK  144  A    between atoms: _333  and  _335
REMARK  145  A    between atoms: _335  and  _336
REMARK  146  A    between atoms: _335  and  _338
REMARK  147  A    between atoms: _338  and  _339
REMARK  148  A    between atoms: _342  and  _344
REMARK  149  A    between atoms: _344  and  _345
REMARK  150  A    between atoms: _344  and  _347
REMARK  151  A    between atoms: _349  and  _351
REMARK  152  A    between atoms: _351  and  _352
REMARK  153  A    between atoms: _351  and  _354
REMARK  154  A    between atoms: _354  and  _355
REMARK  155  A    between atoms: _358  and  _360
REMARK  156  A    between atoms: _360  and  _361
REMARK  157  A    between atoms: _363  and  _365
REMARK  158  A    between atoms: _365  and  _366
REMARK  159  A    between atoms: _365  and  _368
REMARK  160  A    between atoms: _368  and  _369
REMARK  161  A    between atoms: _369  and  _370
REMARK  162  A    between atoms: _370  and  _371
REMARK  163  A    between atoms: _371  and  _372
REMARK  164  A    between atoms: _376  and  _378
REMARK  165  A    between atoms: _378  and  _379
REMARK  166  A    between atoms: _378  and  _381
REMARK  167  A    between atoms: _381  and  _382
REMARK  168  A    between atoms: _387  and  _389
REMARK  169  A    between atoms: _389  and  _390
REMARK  170  A    between atoms: _389  and  _392
REMARK  171  A    between atoms: _392  and  _393
REMARK  172  A    between atoms: _396  and  _398
REMARK  173  A    between atoms: _398  and  _399
REMARK  174  A    between atoms: _398  and  _401
REMARK  175  A    between atoms: _401  and  _402
REMARK  176  A    between atoms: _412  and  _414
REMARK  177  A    between atoms: _414  and  _415
REMARK  178  A    between atoms: _414  and  _417
REMARK  179  A    between atoms: _417  and  _418
REMARK  180  A    between atoms: _418  and  _419
REMARK  181  A    between atoms: _419  and  _420
REMARK  182  A    between atoms: _420  and  _421
REMARK  183  A    between atoms: _426  and  _427
REMARK  184  A    between atoms: _432  and  _434
REMARK  185  A    between atoms: _434  and  _435
REMARK  186  A    between atoms: _438  and  _440
REMARK  187  A    between atoms: _440  and  _441
REMARK  188  A    between atoms: _440  and  _443
REMARK  189  A    between atoms: _446  and  _448
REMARK  190  A    between atoms: _448  and  _449
REMARK  191  A    between atoms: _448  and  _451
REMARK  192  A    between atoms: _451  and  _452
REMARK  193  A    between atoms: _452  and  _453
REMARK  194  A    between atoms: _456  and  _458
REMARK  195  A    between atoms: _458  and  _459
REMARK  196  A    between atoms: _462  and  _464
REMARK  197  A    between atoms: _464  and  _465
REMARK  198  A    between atoms: _464  and  _467
REMARK  199  A    between atoms: _467  and  _468
REMARK  200  A    between atoms: _473  and  _474
REMARK  201  A    between atoms: _476  and  _478
REMARK  202  A    between atoms: _478  and  _479
REMARK  203  A    between atoms: _481  and  _483
REMARK  204  A    between atoms: _483  and  _484
REMARK  205  A    between atoms: _483  and  _486
REMARK  206  A    between atoms: _486  and  _487
REMARK  207  A    between atoms: _487  and  _488
REMARK  208  A    between atoms: _491  and  _493
REMARK  209  A    between atoms: _493  and  _494
REMARK  210  A    between atoms: _493  and  _496
REMARK  211  A    between atoms: _496  and  _497
REMARK  212  A    between atoms: _503  and  _505
REMARK  213  A    between atoms: _505  and  _506
REMARK  214  A    between atoms: _505  and  _508
REMARK  215  A    between atoms: _508  and  _509
REMARK  216  A    between atoms: _512  and  _514
REMARK  217  A    between atoms: _514  and  _515
REMARK  218  A    between atoms: _514  and  _517
REMARK  219  A    between atoms: _519  and  _521
REMARK  220  A    between atoms: _521  and  _522
REMARK  221  A    between atoms: _521  and  _524
REMARK  222  A    between atoms: _524  and  _525
REMARK  223  A    between atoms: _531  and  _533
REMARK  224  A    between atoms: _533  and  _534
REMARK  225  A    between atoms: _533  and  _536
REMARK  226  A    between atoms: _536  and  _537
REMARK  227  A    between atoms: _537  and  _538
REMARK  228  A    between atoms: _541  and  _543
REMARK  229  A    between atoms: _543  and  _544
REMARK  230  A    between atoms: _543  and  _546
REMARK  231  A    between atoms: _546  and  _547
REMARK  232  A    between atoms: _550  and  _552
REMARK  233  A    between atoms: _552  and  _553
REMARK  234  A    between atoms: _552  and  _555
REMARK  235  A    between atoms: _555  and  _556
REMARK  236  A    between atoms: _556  and  _557
REMARK  237  A    between atoms: _557  and  _558
REMARK  238  A    between atoms: _567  and  _569
REMARK  239  A    between atoms: _569  and  _570
REMARK  240  A    between atoms: _569  and  _572
REMARK  241  A    between atoms: _572  and  _573
REMARK  242  A    between atoms: _576  and  _578
REMARK  243  A    between atoms: _578  and  _579
REMARK  244  A    between atoms: _578  and  _581
REMARK  245  A    between atoms: _581  and  _582
REMARK  246  A    between atoms: _588  and  _590
REMARK  247  A    between atoms: _590  and  _591
REMARK  248  A    between atoms: _590  and  _593
REMARK  249  A    between atoms: _596  and  _598
REMARK  250  A    between atoms: _598  and  _599
REMARK  251  A    between atoms: _603  and  _604
REMARK  252  A    between atoms: _609  and  _611
REMARK  253  A    between atoms: _611  and  _612
REMARK  254  A    between atoms: _611  and  _614
REMARK  255  A    between atoms: _614  and  _615
REMARK  256  A    between atoms: _618  and  _620
REMARK  257  A    between atoms: _620  and  _621
REMARK  258  A    between atoms: _620  and  _623
REMARK  259  A    between atoms: _623  and  _624
REMARK  260  A    between atoms: _631  and  _632
REMARK  261  A    between atoms: _637  and  _639
REMARK  262  A    between atoms: _639  and  _640
REMARK  263  A    between atoms: _639  and  _642
REMARK  264  A    between atoms: _645  and  _647
REMARK  265  A    between atoms: _647  and  _648
REMARK  266  A    between atoms: _651  and  _653
REMARK  267  A    between atoms: _653  and  _654
REMARK  268  A    between atoms: _653  and  _656
REMARK  269  A    between atoms: _656  and  _657
REMARK  270  A    between atoms: _662  and  _663
REMARK  271  A    between atoms: _665  and  _667
REMARK  272  A    between atoms: _667  and  _668
REMARK  273  A    between atoms: _667  and  _670
REMARK  274  A    between atoms: _670  and  _671
REMARK  275  A    between atoms: _676  and  _678
REMARK  276  A    between atoms: _678  and  _679
REMARK  277  A    between atoms: _678  and  _681
REMARK  278  A    between atoms: _681  and  _682
REMARK  279  A    between atoms: _685  and  _687
REMARK  280  A    between atoms: _687  and  _688
REMARK  281  A    between atoms: _687  and  _690
REMARK  282  A    between atoms: _690  and  _691
REMARK  283  A    between atoms: _694  and  _696
REMARK  284  A    between atoms: _696  and  _697
REMARK  285  A    between atoms: _696  and  _699
REMARK  286  A    between atoms: _699  and  _700
REMARK  287  A    between atoms: _700  and  _701
REMARK  288  A    between atoms: _701  and  _702
REMARK  289  A    between atoms: _702  and  _703
REMARK  290  A    between atoms: _707  and  _709
REMARK  291  A    between atoms: _709  and  _710
REMARK  292  A    between atoms: _709  and  _712
REMARK  293  A    between atoms: _712  and  _713
REMARK  294  A    between atoms: _719  and  _721
REMARK  295  A    between atoms: _721  and  _722
REMARK  296  A    between atoms: _721  and  _724
REMARK  297  A    between atoms: _724  and  _725
REMARK  298  A    between atoms: _728  and  _730
REMARK  299  A    between atoms: _730  and  _731
REMARK  300  A    between atoms: _730  and  _733
REMARK  301  A    between atoms: _733  and  _734
REMARK  302  A    between atoms: _736  and  _738
REMARK  303  A    between atoms: _738  and  _739
REMARK  304  A    between atoms: _738  and  _741
REMARK  305  A    between atoms: _741  and  _742
REMARK  306  A    between atoms: _745  and  _747
REMARK  307  A    between atoms: _747  and  _748
REMARK  308  A    between atoms: _747  and  _750
REMARK  309  A    between atoms: _750  and  _751
REMARK  310  A    between atoms: _751  and  _752
REMARK  311  A    between atoms: _752  and  _753
REMARK  312  A    between atoms: _762  and  _764
REMARK  313  A    between atoms: _764  and  _765
REMARK  314  A    between atoms: _764  and  _767
REMARK  315  A    between atoms: _767  and  _768
REMARK  316  A    between atoms: _771  and  _773
REMARK  317  A    between atoms: _773  and  _774
REMARK  318  A    between atoms: _773  and  _776
REMARK  319  A    between atoms: _776  and  _777
REMARK  320  A    between atoms: _777  and  _778
REMARK  321  A    between atoms: _780  and  _782
REMARK  322  A    between atoms: _782  and  _783
REMARK  323  A    between atoms: _782  and  _785
REMARK  324  A    between atoms: _788  and  _790
REMARK  325  A    between atoms: _790  and  _791
REMARK  326  A    between atoms: _790  and  _793
REMARK  327  A    between atoms: _793  and  _794
REMARK                            x       y       z     vdW  Elec       q    Type
REMARK                         _______ _______ _______ _____ _____    ______ ____
ROOT
ATOM      1  C   LEU A   6      80.008  12.555   2.257  0.00  0.00    +0.241 C 
ATOM      2  N   LEU A   7      79.247  12.745   3.329  0.00  0.00    -0.297 N 
ATOM      3  H   LEU A   7      79.077  13.713   3.668  0.00  0.00    +0.150 HD
ATOM      4  O   LEU A   6      80.251  11.431   1.809  0.00  0.00    -0.273 OA
ENDROOT
BRANCH   2   5
ATOM      5  CA  LEU A   7      78.641  11.614   4.045  0.00  0.00    +0.149 C 
BRANCH   5   6
ATOM      6  C   LEU A   7      77.619  10.893   3.166  0.00  0.00    +0.241 C 
ATOM      7  O   LEU A   7      77.556   9.649   3.141  0.00  0.00    -0.273 OA
ATOM      8  N   ARG A   8      76.839  11.640   2.394  0.00  0.00    -0.297 N 
ATOM      9  H   ARG A   8      76.935  12.675   2.420  0.00  0.00    +0.150 HD
BRANCH   8  10
ATOM     10  CA  ARG A   8      75.852  11.035   1.512  0.00  0.00    +0.149 C 
BRANCH  10  11
ATOM     11  C   ARG A   8      76.543  10.170   0.452  0.00  0.00    +0.241 C 
ATOM     12  O   ARG A   8      76.045   9.125   0.064  0.00  0.00    -0.273 OA
ATOM     13  N   THR A   9      77.693  10.625  -0.043  0.00  0.00    -0.295 N 
ATOM     14  H   THR A   9      78.063  11.542   0.279  0.00  0.00    +0.150 HD
BRANCH  13  15
ATOM     15  CA  THR A   9      78.440   9.857  -1.029  0.00  0.00    +0.176 C 
BRANCH  15  16
ATOM     16  C   THR A   9      78.897   8.526  -0.410  0.00  0.00    +0.243 C 
ATOM     17  N   LYS A  10      79.357   8.555   0.837  0.00  0.00    -0.297 N 
ATOM     18  H   LYS A  10      79.432   9.465   1.335  0.00  0.00    +0.150 HD
ATOM     19  O   THR A   9      78.836   7.501  -1.084  0.00  0.00    -0.273 OA
BRANCH  17  20
ATOM     20  CA  LYS A  10      79.764   7.310   1.527  0.00  0.00    +0.149 C 
BRANCH  20  21
ATOM     21  C   LYS A  10      78.563   6.386   1.732  0.00  0.00    +0.241 C 
ATOM     22  N   MET A  11      77.402   6.939   2.105  0.00  0.00    -0.298 N 
ATOM     23  H   MET A  11      77.368   7.952   2.337  0.00  0.00    +0.150 HD
ATOM     24  O   LYS A  10      78.687   5.161   1.524  0.00  0.00    -0.273 OA
BRANCH  22  25
ATOM     25  CA  MET A  11      76.172   6.131   2.191  0.00  0.00    +0.138 C 
BRANCH  25  26
ATOM     26  C   MET A  11      75.865   5.451   0.867  0.00  0.00    +0.227 C 
ATOM     27  O   MET A  11      75.471   4.269   0.820  0.00  0.00    -0.286 OA
ENDBRANCH  25  26
BRANCH  25  28
ATOM     28  CB  MET A  11      74.948   6.989   2.603  0.00  0.00    +0.039 C 
BRANCH  28  29
ATOM     29  CG  MET A  11      75.048   7.667   3.935  0.00  0.00    +0.060 C 
BRANCH  29  30
ATOM     30  SD  MET A  11      73.752   8.962   4.155  0.00  0.00    -0.139 S 
ATOM     31  CE  MET A  11      74.492   9.898   5.482  0.00  0.00    +0.069 C 
ENDBRANCH  29  30
ENDBRANCH  28  29
ENDBRANCH  25  28
ENDBRANCH  22  25
ENDBRANCH  20  21
BRANCH  20  32
ATOM     32  CB  LYS A  10      80.427   7.595   2.862  0.00  0.00    +0.029 C 
BRANCH  32  33
ATOM     33  CG  LYS A  10      81.710   8.404   2.787  0.00  0.00    +0.000 C 
BRANCH  33  34
ATOM     34  CD  LYS A  10      82.795   7.744   1.989  0.00  0.00    -0.024 C 
BRANCH  34  35
ATOM     35  CE  LYS A  10      83.297   6.461   2.606  0.00  0.00    -0.086 C 
BRANCH  35  36
ATOM     36  NZ  LYS A  10      84.446   5.948   1.793  0.00  0.00    +0.380 N 
ATOM     37  HZ1 LYS A  10      84.798   5.064   2.212  0.00  0.00    -0.089 HD
ATOM     38  HZ2 LYS A  10      85.207   6.656   1.785  0.00  0.00    -0.089 HD
ATOM     39  HZ3 LYS A  10      84.128   5.769   0.819  0.00  0.00    -0.089 HD
ENDBRANCH  35  36
ENDBRANCH  34  35
ENDBRANCH  33  34
ENDBRANCH  32  33
ENDBRANCH  20  32
ENDBRANCH  17  20
ENDBRANCH  15  16
BRANCH  15  40
ATOM     40  CB  THR A   9      79.663  10.650  -1.533  0.00  0.00    +0.137 C 
ATOM     41  CG2 THR A   9      80.415   9.886  -2.572  0.00  0.00    +0.034 C 
BRANCH  40  42
ATOM     42  OG1 THR A   9      79.209  11.867  -2.136  0.00  0.00    -0.382 OA
ATOM     43  HG1 THR A   9      78.715  12.402  -1.465  0.00  0.00    +0.210 HD
ENDBRANCH  40  42
ENDBRANCH  15  40
ENDBRANCH  13  15
ENDBRANCH  10  11
BRANCH  10  44
ATOM     44  CB  ARG A   8      75.001  12.132   0.859  0.00  0.00    +0.033 C 
BRANCH  44  45
ATOM     45  CG  ARG A   8      73.803  11.648   0.100  0.00  0.00    +0.045 C 
BRANCH  45  46
ATOM     46  CD  ARG A   8      72.992  12.812  -0.453  0.00  0.00    +0.174 C 
BRANCH  46  47
ATOM     47  NE  ARG A   8      72.410  13.619   0.618  0.00  0.00    -0.265 N 
ATOM     48  CZ  ARG A   8      71.252  13.352   1.218  0.00  0.00    +0.342 C 
ATOM     49  NH2 ARG A   8      70.805  14.148   2.177  0.00  0.00    -0.292 N 
ATOM     50 HH21 ARG A   8      69.900  13.940   2.646  0.00  0.00    +0.255 HD
ATOM     51 HH22 ARG A   8      71.358  14.981   2.461  0.00  0.00    +0.255 HD
ATOM     52  NH1 ARG A   8      70.533  12.290   0.868  0.00  0.00    -0.292 N 
ATOM     53 HH11 ARG A   8      69.630  12.093   1.345  0.00  0.00    +0.255 HD
ATOM     54 HH12 ARG A   8      70.873  11.656   0.117  0.00  0.00    +0.255 HD
ATOM     55  HE  ARG A   8      72.936  14.459   0.933  0.00  0.00    +0.259 HD
ENDBRANCH  46  47
ENDBRANCH  45  46
ENDBRANCH  44  45
ENDBRANCH  10  44
ENDBRANCH   8  10
ENDBRANCH   5   6
BRANCH   5  56
ATOM     56  CB  LEU A   7      78.037  12.071   5.381  0.00  0.00    +0.029 C 
BRANCH  56  57
ATOM     57  CG  LEU A   7      79.102  12.625   6.349  0.00  0.00    +0.002 C 
ATOM     58  CD2 LEU A   7      78.475  13.235   7.603  0.00  0.00    +0.000 C 
ATOM     59  CD1 LEU A   7      80.114  11.543   6.771  0.00  0.00    +0.000 C 
ENDBRANCH  56  57
ENDBRANCH   5  56
ENDBRANCH   2   5
BRANCH   1  60
ATOM     60  CA  LEU A   6      80.563  13.802   1.585  0.00  0.00    +0.149 C 
BRANCH  60  62
ATOM     61  C   ASP A   5      78.449  14.557   0.637  0.00  0.00    +0.241 C 
ATOM     62  N   LEU A   6      79.502  14.805   1.411  0.00  0.00    -0.297 N 
ATOM     63  H   LEU A   6      79.576  15.720   1.899  0.00  0.00    +0.150 HD
ATOM     64  O   ASP A   5      78.352  13.560  -0.067  0.00  0.00    -0.273 OA
BRANCH  61  65
ATOM     65  CA  ASP A   5      77.349  15.612   0.613  0.00  0.00    +0.160 C 
BRANCH  65  68
ATOM     66  C   GLN A   4      76.645  15.629   2.921  0.00  0.00    +0.241 C 
ATOM     67  O   GLN A   4      76.236  14.473   2.815  0.00  0.00    -0.273 OA
ATOM     68  N   ASP A   5      77.233  16.253   1.913  0.00  0.00    -0.297 N 
ATOM     69  H   ASP A   5      77.615  17.210   2.052  0.00  0.00    +0.150 HD
BRANCH  66  70
ATOM     70  CA  GLN A   4      76.500  16.384   4.255  0.00  0.00    +0.149 C 
BRANCH  70  72
ATOM     71  C   LYS A   3      78.849  16.605   4.726  0.00  0.00    +0.241 C 
ATOM     72  N   GLN A   4      77.658  17.197   4.564  0.00  0.00    -0.297 N 
ATOM     73  H   GLN A   4      77.566  18.229   4.659  0.00  0.00    +0.150 HD
ATOM     74  O   LYS A   3      78.985  15.392   4.558  0.00  0.00    -0.273 OA
BRANCH  71  75
ATOM     75  CA  LYS A   3      80.053  17.496   5.046  0.00  0.00    +0.149 C 
BRANCH  75  77
ATOM     76  C   SER A   2      79.864  18.710   2.980  0.00  0.00    +0.243 C 
ATOM     77  N   LYS A   3      79.923  18.727   4.308  0.00  0.00    -0.297 N 
ATOM     78  H   LYS A   3      79.875  19.633   4.817  0.00  0.00    +0.150 HD
ATOM     79  O   SER A   2      79.982  17.666   2.302  0.00  0.00    -0.273 OA
BRANCH  76  80
ATOM     80  CA  SER A   2      79.601  20.060   2.329  0.00  0.00    +0.178 C 
BRANCH  80  83
ATOM     81  C   ALA A   1      81.522  20.216   0.913  0.00  0.00    +0.238 C 
ATOM     82  O   ALA A   1      82.262  20.379   1.876  0.00  0.00    -0.274 OA
ATOM     83  N   SER A   2      80.206  20.097   1.023  0.00  0.00    -0.295 N 
ATOM     84  H   SER A   2      79.614  20.031   0.171  0.00  0.00    +0.150 HD
BRANCH  81  85
ATOM     85  CA  ALA A   1      82.074  20.121  -0.471  0.00  0.00    +0.145 C 
ATOM     86  CB  ALA A   1      82.278  18.648  -0.844  0.00  0.00    +0.028 C 
BRANCH  85  87
ATOM     87  N   ALA A   1      83.331  20.846  -0.529  0.00  0.00    -0.238 NA
ATOM     88  H   ALA A   1      83.945  20.880   0.310  0.00  0.00    +0.142 HD
ENDBRANCH  85  87
ENDBRANCH  81  85
ENDBRANCH  80  83
BRANCH  80  89
ATOM     89  CB  SER A   2      78.091  20.320   2.224  0.00  0.00    +0.166 C 
BRANCH  89  90
ATOM     90  OG  SER A   2      77.449  19.320   1.452  0.00  0.00    -0.380 OA
ATOM     91  H   SER A   2      76.480  19.514   1.403  0.00  0.00    +0.211 HD
ENDBRANCH  89  90
ENDBRANCH  80  89
ENDBRANCH  76  80
ENDBRANCH  75  77
BRANCH  75  92
ATOM     92  CB  LYS A   3      80.192  17.773   6.550  0.00  0.00    +0.029 C 
BRANCH  92  93
ATOM     93  CG  LYS A   3      80.460  16.543   7.349  0.00  0.00    +0.000 C 
BRANCH  93  94
ATOM     94  CD  LYS A   3      81.200  16.854   8.671  0.00  0.00    -0.024 C 
BRANCH  94  95
ATOM     95  CE  LYS A   3      80.394  17.782   9.563  0.00  0.00    -0.086 C 
BRANCH  95  96
ATOM     96  NZ  LYS A   3      79.068  17.187   9.903  0.00  0.00    +0.380 N 
ATOM     97  HZ1 LYS A   3      78.541  17.844  10.513  0.00  0.00    -0.089 HD
ATOM     98  HZ2 LYS A   3      79.211  16.287  10.403  0.00  0.00    -0.089 HD
ATOM     99  HZ3 LYS A   3      78.531  17.017   9.029  0.00  0.00    -0.089 HD
ENDBRANCH  95  96
ENDBRANCH  94  95
ENDBRANCH  93  94
ENDBRANCH  92  93
ENDBRANCH  75  92
ENDBRANCH  71  75
ENDBRANCH  70  72
BRANCH  70 100
ATOM    100  CB  GLN A   4      75.166  17.170   4.334  0.00  0.00    +0.039 C 
BRANCH 100 101
ATOM    101  CG  GLN A   4      75.063  18.369   3.386  0.00  0.00    +0.087 C 
BRANCH 101 102
ATOM    102  CD  GLN A   4      73.668  18.990   3.410  0.00  0.00    +0.219 C 
ATOM    103  NE2 GLN A   4      73.348  19.702   4.495  0.00  0.00    -0.329 N 
ATOM    104 HE21 GLN A   4      74.050  19.844   5.249  0.00  0.00    +0.145 HD
ATOM    105 HE22 GLN A   4      72.397  20.114   4.585  0.00  0.00    +0.145 HD
ATOM    106  OE1 GLN A   4      72.879  18.788   2.485  0.00  0.00    -0.275 OA
ENDBRANCH 101 102
ENDBRANCH 100 101
ENDBRANCH  70 100
ENDBRANCH  66  70
ENDBRANCH  65  68
BRANCH  65 107
ATOM    107  CB  ASP A   5      77.636  16.638  -0.454  0.00  0.00    +0.143 C 
BRANCH 107 108
ATOM    108  CG  ASP A   5      76.390  17.354  -0.923  0.00  0.00    +0.367 C 
ATOM    109  OD2 ASP A   5      75.258  17.003  -0.488  0.00  0.00    -0.246 OA
ATOM    110  OD1 ASP A   5      76.567  18.266  -1.742  0.00  0.00    -0.246 OA
ENDBRANCH 107 108
ENDBRANCH  65 107
ENDBRANCH  61  65
ENDBRANCH  60  62
BRANCH  60 111
ATOM    111  CB  LEU A   6      81.723  14.382   2.375  0.00  0.00    +0.029 C 
BRANCH 111 112
ATOM    112  CG  LEU A   6      82.555  15.396   1.608  0.00  0.00    +0.002 C 
ATOM    113  CD2 LEU A   6      83.459  16.230   2.532  0.00  0.00    +0.000 C 
ATOM    114  CD1 LEU A   6      83.374  14.715   0.504  0.00  0.00    +0.000 C 
ENDBRANCH 111 112
ENDBRANCH  60 111
ENDBRANCH   1  60
TORSDOF 52
REMARK  Name = ../refined-set-2016/4omj/4omj_pocket.pdb
REMARK  327 active torsions:
REMARK  status: ('A' for Active; 'I' for Inactive)
REMARK    1  A    between atoms: _1  and  _3
REMARK    2  A    between atoms: _3  and  _4
REMARK    3  A    between atoms: _3  and  _6
REMARK    4  A    between atoms: _6  and  _7
REMARK    5  A    between atoms: _10  and  _12
REMARK    6  A    between atoms: _12  and  _13
REMARK    7  A    between atoms: _12  and  _15
REMARK    8  A    between atoms: _15  and  _16
REMARK    9  A    between atoms: _21  and  _22
REMARK   10  A    between atoms: _24  and  _26
REMARK   11  A    between atoms: _26  and  _27
REMARK   12  A    between atoms: _26  and  _29
REMARK   13  A    between atoms: _29  and  _30
REMARK   14  A    between atoms: _33  and  _35
REMARK   15  A    between atoms: _35  and  _36
REMARK   16  A    between atoms: _35  and  _38
REMARK   17  A    between atoms: _38  and  _39
REMARK   18  A    between atoms: _41  and  _43
REMARK   19  A    between atoms: _43  and  _44
REMARK   20  A    between atoms: _43  and  _46
REMARK   21  A    between atoms: _46  and  _47
REMARK   22  A    between atoms: _57  and  _59
REMARK   23  A    between atoms: _59  and  _60
REMARK   24  A    between atoms: _59  and  _62
REMARK   25  A    between atoms: _62  and  _63
REMARK   26  A    between atoms: _66  and  _68
REMARK   27  A    between atoms: _68  and  _69
REMARK   28  A    between atoms: _68  and  _71
REMARK   29  A    between atoms: _71  and  _72
REMARK   30  A    between atoms: _75  and  _77
REMARK   31  A    between atoms: _77  and  _78
REMARK   32  A    between atoms: _77  and  _80
REMARK   33  A    between atoms: _80  and  _81
REMARK   34  A    between atoms: _84  and  _86
REMARK   35  A    between atoms: _86  and  _87
REMARK   36  A    between atoms: _89  and  _91
REMARK   37  A    between atoms: _91  and  _92
REMARK   38  A    between atoms: _91  and  _94
REMARK   39  A    between atoms: _94  and  _95
REMARK   40  A    between atoms: _98  and  _100
REMARK   41  A    between atoms: _100  and  _101
REMARK   42  A    between atoms: _100  and  _103
REMARK   43  A    between atoms: _103  and  _104
REMARK   44  A    between atoms: _107  and  _109
REMARK   45  A    between atoms: _109  and  _110
REMARK   46  A    between atoms: _113  and  _115
REMARK   47  A    between atoms: _115  and  _116
REMARK   48  A    between atoms: _115  and  _118
REMARK   49  A    between atoms: _118  and  _119
REMARK   50  A    between atoms: _119  and  _120
REMARK   51  A    between atoms: _120  and  _121
REMARK   52  A    between atoms: _121  and  _122
REMARK   53  A    between atoms: _126  and  _128
REMARK   54  A    between atoms: _128  and  _129
REMARK   55  A    between atoms: _131  and  _133
REMARK   56  A    between atoms: _133  and  _134
REMARK   57  A    between atoms: _133  and  _136
REMARK   58  A    between atoms: _136  and  _137
REMARK   59  A    between atoms: _140  and  _142
REMARK   60  A    between atoms: _142  and  _143
REMARK   61  A    between atoms: _142  and  _145
REMARK   62  A    between atoms: _145  and  _146
REMARK   63  A    between atoms: _149  and  _151
REMARK   64  A    between atoms: _151  and  _152
REMARK   65  A    between atoms: _151  and  _154
REMARK   66  A    between atoms: _154  and  _155
REMARK   67  A    between atoms: _161  and  _163
REMARK   68  A    between atoms: _163  and  _164
REMARK   69  A    between atoms: _167  and  _169
REMARK   70  A    between atoms: _169  and  _170
REMARK   71  A    between atoms: _169  and  _172
REMARK   72  A    between atoms: _172  and  _173
REMARK   73  A    between atoms: _175  and  _177
REMARK   74  A    between atoms: _177  and  _178
REMARK   75  A    between atoms: _177  and  _180
REMARK   76  A    between atoms: _180  and  _181
REMARK   77  A    between atoms: _181  and  _182
REMARK   78  A    between atoms: _182  and  _183
REMARK   79  A    between atoms: _183  and  _184
REMARK   80  A    between atoms: _188  and  _190
REMARK   81  A    between atoms: _190  and  _191
REMARK   82  A    between atoms: _190  and  _193
REMARK   83  A    between atoms: _193  and  _194
REMARK   84  A    between atoms: _194  and  _195
REMARK   85  A    between atoms: _200  and  _202
REMARK   86  A    between atoms: _202  and  _203
REMARK   87  A    between atoms: _202  and  _205
REMARK   88  A    between atoms: _205  and  _206
REMARK   89  A    between atoms: _209  and  _211
REMARK   90  A    between atoms: _211  and  _212
REMARK   91  A    between atoms: _211  and  _214
REMARK   92  A    between atoms: _214  and  _215
REMARK   93  A    between atoms: _218  and  _220
REMARK   94  A    between atoms: _220  and  _221
REMARK   95  A    between atoms: _220  and  _223
REMARK   96  A    between atoms: _223  and  _224
REMARK   97  A    between atoms: _227  and  _229
REMARK   98  A    between atoms: _229  and  _230
REMARK   99  A    between atoms: _229  and  _232
REMARK  100  A    between atoms: _232  and  _233
REMARK  101  A    between atoms: _233  and  _234
REMARK  102  A    between atoms: _234  and  _235
REMARK  103  A    between atoms: _244  and  _246
REMARK  104  A    between atoms: _246  and  _247
REMARK  105  A    between atoms: _246  and  _249
REMARK  106  A    between atoms: _249  and  _250
REMARK  107  A    between atoms: _253  and  _255
REMARK  108  A    between atoms: _255  and  _256
REMARK  109  A    between atoms: _255  and  _258
REMARK  110  A    between atoms: _258  and  _259
REMARK  111  A    between atoms: _259  and  _260
REMARK  112  A    between atoms: _260  and  _261
REMARK  113  A    between atoms: _261  and  _262
REMARK  114  A    between atoms: _266  and  _268
REMARK  115  A    between atoms: _268  and  _269
REMARK  116  A    between atoms: _268  and  _271
REMARK  117  A    between atoms: _271  and  _272
REMARK  118  A    between atoms: _272  and  _273
REMARK  119  A    between atoms: _275  and  _277
REMARK  120  A    between atoms: _277  and  _278
REMARK  121  A    between atoms: _277  and  _280
REMARK  122  A    between atoms: _280  and  _281
REMARK  123  A    between atoms: _281  and  _282
REMARK  124  A    between atoms: _285  and  _287
REMARK  125  A    between atoms: _287  and  _288
REMARK  126  A    between atoms: _287  and  _290
REMARK  127  A    between atoms: _292  and  _294
REMARK  128  A    between atoms: _294  and  _295
REMARK  129  A    between atoms: _294  and  _297
REMARK  130  A    between atoms: _297  and  _298
REMARK  131  A    between atoms: _301  and  _303
REMARK  132  A    between atoms: _303  and  _304
REMARK  133  A    between atoms: _303  and  _306
REMARK  134  A    between atoms: _306  and  _307
REMARK  135  A    between atoms: _310  and  _312
REMARK  136  A    between atoms: _312  and  _313
REMARK  137  A    between atoms: _312  and  _315
REMARK  138  A    between atoms: _315  and  _316
REMARK  139  A    between atoms: _319  and  _321
REMARK  140  A    between atoms: _321  and  _322
REMARK  141  A    between atoms: _321  and  _324
REMARK  142  A    between atoms: _324  and  _325
REMARK  143  A    between atoms: _330  and  _331
REMARK  144  A    between atoms: _333  and  _335
REMARK  145  A    between atoms: _335  and  _336
REMARK  146  A    between atoms: _335  and  _338
REMARK  147  A    between atoms: _338  and  _339
REMARK  148  A    between atoms: _342  and  _344
REMARK  149  A    between atoms: _344  and  _345
REMARK  150  A    between atoms: _344  and  _347
REMARK  151  A    between atoms: _349  and  _351
REMARK  152  A    between atoms: _351  and  _352
REMARK  153  A    between atoms: _351  and  _354
REMARK  154  A    between atoms: _354  and  _355
REMARK  155  A    between atoms: _358  and  _360
REMARK  156  A    between atoms: _360  and  _361
REMARK  157  A    between atoms: _363  and  _365
REMARK  158  A    between atoms: _365  and  _366
REMARK  159  A    between atoms: _365  and  _368
REMARK  160  A    between atoms: _368  and  _369
REMARK  161  A    between atoms: _369  and  _370
REMARK  162  A    between atoms: _370  and  _371
REMARK  163  A    between atoms: _371  and  _372
REMARK  164  A    between atoms: _376  and  _378
REMARK  165  A    between atoms: _378  and  _379
REMARK  166  A    between atoms: _378  and  _381
REMARK  167  A    between atoms: _381  and  _382
REMARK  168  A    between atoms: _387  and  _389
REMARK  169  A    between atoms: _389  and  _390
REMARK  170  A    between atoms: _389  and  _392
REMARK  171  A    between atoms: _392  and  _393
REMARK  172  A    between atoms: _396  and  _398
REMARK  173  A    between atoms: _398  and  _399
REMARK  174  A    between atoms: _398  and  _401
REMARK  175  A    between atoms: _401  and  _402
REMARK  176  A    between atoms: _412  and  _414
REMARK  177  A    between atoms: _414  and  _415
REMARK  178  A    between atoms: _414  and  _417
REMARK  179  A    between atoms: _417  and  _418
REMARK  180  A    between atoms: _418  and  _419
REMARK  181  A    between atoms: _419  and  _420
REMARK  182  A    between atoms: _420  and  _421
REMARK  183  A    between atoms: _426  and  _427
REMARK  184  A    between atoms: _432  and  _434
REMARK  185  A    between atoms: _434  and  _435
REMARK  186  A    between atoms: _438  and  _440
REMARK  187  A    between atoms: _440  and  _441
REMARK  188  A    between atoms: _440  and  _443
REMARK  189  A    between atoms: _446  and  _448
REMARK  190  A    between atoms: _448  and  _449
REMARK  191  A    between atoms: _448  and  _451
REMARK  192  A    between atoms: _451  and  _452
REMARK  193  A    between atoms: _452  and  _453
REMARK  194  A    between atoms: _456  and  _458
REMARK  195  A    between atoms: _458  and  _459
REMARK  196  A    between atoms: _462  and  _464
REMARK  197  A    between atoms: _464  and  _465
REMARK  198  A    between atoms: _464  and  _467
REMARK  199  A    between atoms: _467  and  _468
REMARK  200  A    between atoms: _473  and  _474
REMARK  201  A    between atoms: _476  and  _478
REMARK  202  A    between atoms: _478  and  _479
REMARK  203  A    between atoms: _481  and  _483
REMARK  204  A    between atoms: _483  and  _484
REMARK  205  A    between atoms: _483  and  _486
REMARK  206  A    between atoms: _486  and  _487
REMARK  207  A    between atoms: _487  and  _488
REMARK  208  A    between atoms: _491  and  _493
REMARK  209  A    between atoms: _493  and  _494
REMARK  210  A    between atoms: _493  and  _496
REMARK  211  A    between atoms: _496  and  _497
REMARK  212  A    between atoms: _503  and  _505
REMARK  213  A    between atoms: _505  and  _506
REMARK  214  A    between atoms: _505  and  _508
REMARK  215  A    between atoms: _508  and  _509
REMARK  216  A    between atoms: _512  and  _514
REMARK  217  A    between atoms: _514  and  _515
REMARK  218  A    between atoms: _514  and  _517
REMARK  219  A    between atoms: _519  and  _521
REMARK  220  A    between atoms: _521  and  _522
REMARK  221  A    between atoms: _521  and  _524
REMARK  222  A    between atoms: _524  and  _525
REMARK  223  A    between atoms: _531  and  _533
REMARK  224  A    between atoms: _533  and  _534
REMARK  225  A    between atoms: _533  and  _536
REMARK  226  A    between atoms: _536  and  _537
REMARK  227  A    between atoms: _537  and  _538
REMARK  228  A    between atoms: _541  and  _543
REMARK  229  A    between atoms: _543  and  _544
REMARK  230  A    between atoms: _543  and  _546
REMARK  231  A    between atoms: _546  and  _547
REMARK  232  A    between atoms: _550  and  _552
REMARK  233  A    between atoms: _552  and  _553
REMARK  234  A    between atoms: _552  and  _555
REMARK  235  A    between atoms: _555  and  _556
REMARK  236  A    between atoms: _556  and  _557
REMARK  237  A    between atoms: _557  and  _558
REMARK  238  A    between atoms: _567  and  _569
REMARK  239  A    between atoms: _569  and  _570
REMARK  240  A    between atoms: _569  and  _572
REMARK  241  A    between atoms: _572  and  _573
REMARK  242  A    between atoms: _576  and  _578
REMARK  243  A    between atoms: _578  and  _579
REMARK  244  A    between atoms: _578  and  _581
REMARK  245  A    between atoms: _581  and  _582
REMARK  246  A    between atoms: _588  and  _590
REMARK  247  A    between atoms: _590  and  _591
REMARK  248  A    between atoms: _590  and  _593
REMARK  249  A    between atoms: _596  and  _598
REMARK  250  A    between atoms: _598  and  _599
REMARK  251  A    between atoms: _603  and  _604
REMARK  252  A    between atoms: _609  and  _611
REMARK  253  A    between atoms: _611  and  _612
REMARK  254  A    between atoms: _611  and  _614
REMARK  255  A    between atoms: _614  and  _615
REMARK  256  A    between atoms: _618  and  _620
REMARK  257  A    between atoms: _620  and  _621
REMARK  258  A    between atoms: _620  and  _623
REMARK  259  A    between atoms: _623  and  _624
REMARK  260  A    between atoms: _631  and  _632
REMARK  261  A    between atoms: _637  and  _639
REMARK  262  A    between atoms: _639  and  _640
REMARK  263  A    between atoms: _639  and  _642
REMARK  264  A    between atoms: _645  and  _647
REMARK  265  A    between atoms: _647  and  _648
REMARK  266  A    between atoms: _651  and  _653
REMARK  267  A    between atoms: _653  and  _654
REMARK  268  A    between atoms: _653  and  _656
REMARK  269  A    between atoms: _656  and  _657
REMARK  270  A    between atoms: _662  and  _663
REMARK  271  A    between atoms: _665  and  _667
REMARK  272  A    between atoms: _667  and  _668
REMARK  273  A    between atoms: _667  and  _670
REMARK  274  A    between atoms: _670  and  _671
REMARK  275  A    between atoms: _676  and  _678
REMARK  276  A    between atoms: _678  and  _679
REMARK  277  A    between atoms: _678  and  _681
REMARK  278  A    between atoms: _681  and  _682
REMARK  279  A    between atoms: _685  and  _687
REMARK  280  A    between atoms: _687  and  _688
REMARK  281  A    between atoms: _687  and  _690
REMARK  282  A    between atoms: _690  and  _691
REMARK  283  A    between atoms: _694  and  _696
REMARK  284  A    between atoms: _696  and  _697
REMARK  285  A    between atoms: _696  and  _699
REMARK  286  A    between atoms: _699  and  _700
REMARK  287  A    between atoms: _700  and  _701
REMARK  288  A    between atoms: _701  and  _702
REMARK  289  A    between atoms: _702  and  _703
REMARK  290  A    between atoms: _707  and  _709
REMARK  291  A    between atoms: _709  and  _710
REMARK  292  A    between atoms: _709  and  _712
REMARK  293  A    between atoms: _712  and  _713
REMARK  294  A    between atoms: _719  and  _721
REMARK  295  A    between atoms: _721  and  _722
REMARK  296  A    between atoms: _721  and  _724
REMARK  297  A    between atoms: _724  and  _725
REMARK  298  A    between atoms: _728  and  _730
REMARK  299  A    between atoms: _730  and  _731
REMARK  300  A    between atoms: _730  and  _733
REMARK  301  A    between atoms: _733  and  _734
REMARK  302  A    between atoms: _736  and  _738
REMARK  303  A    between atoms: _738  and  _739
REMARK  304  A    between atoms: _738  and  _741
REMARK  305  A    between atoms: _741  and  _742
REMARK  306  A    between atoms: _745  and  _747
REMARK  307  A    between atoms: _747  and  _748
REMARK  308  A    between atoms: _747  and  _750
REMARK  309  A    between atoms: _750  and  _751
REMARK  310  A    between atoms: _751  and  _752
REMARK  311  A    between atoms: _752  and  _753
REMARK  312  A    between atoms: _762  and  _764
REMARK  313  A    between atoms: _764  and  _765
REMARK  314  A    between atoms: _764  and  _767
REMARK  315  A    between atoms: _767  and  _768
REMARK  316  A    between atoms: _771  and  _773
REMARK  317  A    between atoms: _773  and  _774
REMARK  318  A    between atoms: _773  and  _776
REMARK  319  A    between atoms: _776  and  _777
REMARK  320  A    between atoms: _777  and  _778
REMARK  321  A    between atoms: _780  and  _782
REMARK  322  A    between atoms: _782  and  _783
REMARK  323  A    between atoms: _782  and  _785
REMARK  324  A    between atoms: _788  and  _790
REMARK  325  A    between atoms: _790  and  _791
REMARK  326  A    between atoms: _790  and  _793
REMARK  327  A    between atoms: _793  and  _794
REMARK                            x       y       z     vdW  Elec       q    Type
REMARK                         _______ _______ _______ _____ _____    ______ ____
ROOT
ATOM      1  C   GLU A   1      78.427   2.292  -0.967  0.00  0.00    +0.238 C 
ATOM      2  N   CYS A   2      77.955   2.451   0.265  0.00  0.00    -0.298 N 
ATOM      3  H   CYS A   2      77.939   3.403   0.683  0.00  0.00    +0.150 HD
ATOM      4  O   GLU A   1      78.528   1.187  -1.531  0.00  0.00    -0.274 OA
ENDROOT
BRANCH   1   5
ATOM      5  CA  GLU A   1      78.886   3.564  -1.683  0.00  0.00    +0.145 C 
BRANCH   5   6
ATOM      6  N   GLU A   1      77.928   4.663  -1.463  0.00  0.00    -0.238 NA
ATOM      7  H   GLU A   1      78.244   5.544  -1.010  0.00  0.00    +0.142 HD
ENDBRANCH   5   6
BRANCH   5   8
ATOM      8  CB  GLU A   1      80.294   3.958  -1.212  0.00  0.00    +0.038 C 
BRANCH   8   9
ATOM      9  CG  GLU A   1      80.954   5.020  -2.053  0.00  0.00    +0.116 C 
BRANCH   9  10
ATOM     10  CD  GLU A   1      82.230   5.588  -1.400  0.00  0.00    +0.365 C 
ATOM     11  OE2 GLU A   1      82.574   5.195  -0.261  0.00  0.00    -0.246 OA
ATOM     12  OE1 GLU A   1      82.884   6.422  -2.059  0.00  0.00    -0.246 OA
ENDBRANCH   9  10
ENDBRANCH   8   9
ENDBRANCH   5   8
ENDBRANCH   1   5
BRANCH   2  13
ATOM     13  CA  CYS A   2      77.459   1.322   1.046  0.00  0.00    +0.149 C 
BRANCH  13  14
ATOM     14  CB  CYS A   2      77.061   1.747   2.441  0.00  0.00    +0.096 C 
ATOM     15  SG  CYS A   2      78.505   2.251   3.443  0.00  0.00    -0.080 S 
ENDBRANCH  13  14
BRANCH  13  16
ATOM     16  C   CYS A   2      76.296   0.666   0.320  0.00  0.00    +0.228 C 
ATOM     17  O   CYS A   2      76.231  -0.564   0.199  0.00  0.00    -0.286 OA
ENDBRANCH  13  16
ENDBRANCH   2  13
TORSDOF 8
REMARK  Name = ../refined-set-2016/4omj/4omj_pocket.pdb
REMARK  327 active torsions:
REMARK  status: ('A' for Active; 'I' for Inactive)
REMARK    1  A    between atoms: _1  and  _3
REMARK    2  A    between atoms: _3  and  _4
REMARK    3  A    between atoms: _3  and  _6
REMARK    4  A    between atoms: _6  and  _7
REMARK    5  A    between atoms: _10  and  _12
REMARK    6  A    between atoms: _12  and  _13
REMARK    7  A    between atoms: _12  and  _15
REMARK    8  A    between atoms: _15  and  _16
REMARK    9  A    between atoms: _21  and  _22
REMARK   10  A    between atoms: _24  and  _26
REMARK   11  A    between atoms: _26  and  _27
REMARK   12  A    between atoms: _26  and  _29
REMARK   13  A    between atoms: _29  and  _30
REMARK   14  A    between atoms: _33  and  _35
REMARK   15  A    between atoms: _35  and  _36
REMARK   16  A    between atoms: _35  and  _38
REMARK   17  A    between atoms: _38  and  _39
REMARK   18  A    between atoms: _41  and  _43
REMARK   19  A    between atoms: _43  and  _44
REMARK   20  A    between atoms: _43  and  _46
REMARK   21  A    between atoms: _46  and  _47
REMARK   22  A    between atoms: _57  and  _59
REMARK   23  A    between atoms: _59  and  _60
REMARK   24  A    between atoms: _59  and  _62
REMARK   25  A    between atoms: _62  and  _63
REMARK   26  A    between atoms: _66  and  _68
REMARK   27  A    between atoms: _68  and  _69
REMARK   28  A    between atoms: _68  and  _71
REMARK   29  A    between atoms: _71  and  _72
REMARK   30  A    between atoms: _75  and  _77
REMARK   31  A    between atoms: _77  and  _78
REMARK   32  A    between atoms: _77  and  _80
REMARK   33  A    between atoms: _80  and  _81
REMARK   34  A    between atoms: _84  and  _86
REMARK   35  A    between atoms: _86  and  _87
REMARK   36  A    between atoms: _89  and  _91
REMARK   37  A    between atoms: _91  and  _92
REMARK   38  A    between atoms: _91  and  _94
REMARK   39  A    between atoms: _94  and  _95
REMARK   40  A    between atoms: _98  and  _100
REMARK   41  A    between atoms: _100  and  _101
REMARK   42  A    between atoms: _100  and  _103
REMARK   43  A    between atoms: _103  and  _104
REMARK   44  A    between atoms: _107  and  _109
REMARK   45  A    between atoms: _109  and  _110
REMARK   46  A    between atoms: _113  and  _115
REMARK   47  A    between atoms: _115  and  _116
REMARK   48  A    between atoms: _115  and  _118
REMARK   49  A    between atoms: _118  and  _119
REMARK   50  A    between atoms: _119  and  _120
REMARK   51  A    between atoms: _120  and  _121
REMARK   52  A    between atoms: _121  and  _122
REMARK   53  A    between atoms: _126  and  _128
REMARK   54  A    between atoms: _128  and  _129
REMARK   55  A    between atoms: _131  and  _133
REMARK   56  A    between atoms: _133  and  _134
REMARK   57  A    between atoms: _133  and  _136
REMARK   58  A    between atoms: _136  and  _137
REMARK   59  A    between atoms: _140  and  _142
REMARK   60  A    between atoms: _142  and  _143
REMARK   61  A    between atoms: _142  and  _145
REMARK   62  A    between atoms: _145  and  _146
REMARK   63  A    between atoms: _149  and  _151
REMARK   64  A    between atoms: _151  and  _152
REMARK   65  A    between atoms: _151  and  _154
REMARK   66  A    between atoms: _154  and  _155
REMARK   67  A    between atoms: _161  and  _163
REMARK   68  A    between atoms: _163  and  _164
REMARK   69  A    between atoms: _167  and  _169
REMARK   70  A    between atoms: _169  and  _170
REMARK   71  A    between atoms: _169  and  _172
REMARK   72  A    between atoms: _172  and  _173
REMARK   73  A    between atoms: _175  and  _177
REMARK   74  A    between atoms: _177  and  _178
REMARK   75  A    between atoms: _177  and  _180
REMARK   76  A    between atoms: _180  and  _181
REMARK   77  A    between atoms: _181  and  _182
REMARK   78  A    between atoms: _182  and  _183
REMARK   79  A    between atoms: _183  and  _184
REMARK   80  A    between atoms: _188  and  _190
REMARK   81  A    between atoms: _190  and  _191
REMARK   82  A    between atoms: _190  and  _193
REMARK   83  A    between atoms: _193  and  _194
REMARK   84  A    between atoms: _194  and  _195
REMARK   85  A    between atoms: _200  and  _202
REMARK   86  A    between atoms: _202  and  _203
REMARK   87  A    between atoms: _202  and  _205
REMARK   88  A    between atoms: _205  and  _206
REMARK   89  A    between atoms: _209  and  _211
REMARK   90  A    between atoms: _211  and  _212
REMARK   91  A    between atoms: _211  and  _214
REMARK   92  A    between atoms: _214  and  _215
REMARK   93  A    between atoms: _218  and  _220
REMARK   94  A    between atoms: _220  and  _221
REMARK   95  A    between atoms: _220  and  _223
REMARK   96  A    between atoms: _223  and  _224
REMARK   97  A    between atoms: _227  and  _229
REMARK   98  A    between atoms: _229  and  _230
REMARK   99  A    between atoms: _229  and  _232
REMARK  100  A    between atoms: _232  and  _233
REMARK  101  A    between atoms: _233  and  _234
REMARK  102  A    between atoms: _234  and  _235
REMARK  103  A    between atoms: _244  and  _246
REMARK  104  A    between atoms: _246  and  _247
REMARK  105  A    between atoms: _246  and  _249
REMARK  106  A    between atoms: _249  and  _250
REMARK  107  A    between atoms: _253  and  _255
REMARK  108  A    between atoms: _255  and  _256
REMARK  109  A    between atoms: _255  and  _258
REMARK  110  A    between atoms: _258  and  _259
REMARK  111  A    between atoms: _259  and  _260
REMARK  112  A    between atoms: _260  and  _261
REMARK  113  A    between atoms: _261  and  _262
REMARK  114  A    between atoms: _266  and  _268
REMARK  115  A    between atoms: _268  and  _269
REMARK  116  A    between atoms: _268  and  _271
REMARK  117  A    between atoms: _271  and  _272
REMARK  118  A    between atoms: _272  and  _273
REMARK  119  A    between atoms: _275  and  _277
REMARK  120  A    between atoms: _277  and  _278
REMARK  121  A    between atoms: _277  and  _280
REMARK  122  A    between atoms: _280  and  _281
REMARK  123  A    between atoms: _281  and  _282
REMARK  124  A    between atoms: _285  and  _287
REMARK  125  A    between atoms: _287  and  _288
REMARK  126  A    between atoms: _287  and  _290
REMARK  127  A    between atoms: _292  and  _294
REMARK  128  A    between atoms: _294  and  _295
REMARK  129  A    between atoms: _294  and  _297
REMARK  130  A    between atoms: _297  and  _298
REMARK  131  A    between atoms: _301  and  _303
REMARK  132  A    between atoms: _303  and  _304
REMARK  133  A    between atoms: _303  and  _306
REMARK  134  A    between atoms: _306  and  _307
REMARK  135  A    between atoms: _310  and  _312
REMARK  136  A    between atoms: _312  and  _313
REMARK  137  A    between atoms: _312  and  _315
REMARK  138  A    between atoms: _315  and  _316
REMARK  139  A    between atoms: _319  and  _321
REMARK  140  A    between atoms: _321  and  _322
REMARK  141  A    between atoms: _321  and  _324
REMARK  142  A    between atoms: _324  and  _325
REMARK  143  A    between atoms: _330  and  _331
REMARK  144  A    between atoms: _333  and  _335
REMARK  145  A    between atoms: _335  and  _336
REMARK  146  A    between atoms: _335  and  _338
REMARK  147  A    between atoms: _338  and  _339
REMARK  148  A    between atoms: _342  and  _344
REMARK  149  A    between atoms: _344  and  _345
REMARK  150  A    between atoms: _344  and  _347
REMARK  151  A    between atoms: _349  and  _351
REMARK  152  A    between atoms: _351  and  _352
REMARK  153  A    between atoms: _351  and  _354
REMARK  154  A    between atoms: _354  and  _355
REMARK  155  A    between atoms: _358  and  _360
REMARK  156  A    between atoms: _360  and  _361
REMARK  157  A    between atoms: _363  and  _365
REMARK  158  A    between atoms: _365  and  _366
REMARK  159  A    between atoms: _365  and  _368
REMARK  160  A    between atoms: _368  and  _369
REMARK  161  A    between atoms: _369  and  _370
REMARK  162  A    between atoms: _370  and  _371
REMARK  163  A    between atoms: _371  and  _372
REMARK  164  A    between atoms: _376  and  _378
REMARK  165  A    between atoms: _378  and  _379
REMARK  166  A    between atoms: _378  and  _381
REMARK  167  A    between atoms: _381  and  _382
REMARK  168  A    between atoms: _387  and  _389
REMARK  169  A    between atoms: _389  and  _390
REMARK  170  A    between atoms: _389  and  _392
REMARK  171  A    between atoms: _392  and  _393
REMARK  172  A    between atoms: _396  and  _398
REMARK  173  A    between atoms: _398  and  _399
REMARK  174  A    between atoms: _398  and  _401
REMARK  175  A    between atoms: _401  and  _402
REMARK  176  A    between atoms: _412  and  _414
REMARK  177  A    between atoms: _414  and  _415
REMARK  178  A    between atoms: _414  and  _417
REMARK  179  A    between atoms: _417  and  _418
REMARK  180  A    between atoms: _418  and  _419
REMARK  181  A    between atoms: _419  and  _420
REMARK  182  A    between atoms: _420  and  _421
REMARK  183  A    between atoms: _426  and  _427
REMARK  184  A    between atoms: _432  and  _434
REMARK  185  A    between atoms: _434  and  _435
REMARK  186  A    between atoms: _438  and  _440
REMARK  187  A    between atoms: _440  and  _441
REMARK  188  A    between atoms: _440  and  _443
REMARK  189  A    between atoms: _446  and  _448
REMARK  190  A    between atoms: _448  and  _449
REMARK  191  A    between atoms: _448  and  _451
REMARK  192  A    between atoms: _451  and  _452
REMARK  193  A    between atoms: _452  and  _453
REMARK  194  A    between atoms: _456  and  _458
REMARK  195  A    between atoms: _458  and  _459
REMARK  196  A    between atoms: _462  and  _464
REMARK  197  A    between atoms: _464  and  _465
REMARK  198  A    between atoms: _464  and  _467
REMARK  199  A    between atoms: _467  and  _468
REMARK  200  A    between atoms: _473  and  _474
REMARK  201  A    between atoms: _476  and  _478
REMARK  202  A    between atoms: _478  and  _479
REMARK  203  A    between atoms: _481  and  _483
REMARK  204  A    between atoms: _483  and  _484
REMARK  205  A    between atoms: _483  and  _486
REMARK  206  A    between atoms: _486  and  _487
REMARK  207  A    between atoms: _487  and  _488
REMARK  208  A    between atoms: _491  and  _493
REMARK  209  A    between atoms: _493  and  _494
REMARK  210  A    between atoms: _493  and  _496
REMARK  211  A    between atoms: _496  and  _497
REMARK  212  A    between atoms: _503  and  _505
REMARK  213  A    between atoms: _505  and  _506
REMARK  214  A    between atoms: _505  and  _508
REMARK  215  A    between atoms: _508  and  _509
REMARK  216  A    between atoms: _512  and  _514
REMARK  217  A    between atoms: _514  and  _515
REMARK  218  A    between atoms: _514  and  _517
REMARK  219  A    between atoms: _519  and  _521
REMARK  220  A    between atoms: _521  and  _522
REMARK  221  A    between atoms: _521  and  _524
REMARK  222  A    between atoms: _524  and  _525
REMARK  223  A    between atoms: _531  and  _533
REMARK  224  A    between atoms: _533  and  _534
REMARK  225  A    between atoms: _533  and  _536
REMARK  226  A    between atoms: _536  and  _537
REMARK  227  A    between atoms: _537  and  _538
REMARK  228  A    between atoms: _541  and  _543
REMARK  229  A    between atoms: _543  and  _544
REMARK  230  A    between atoms: _543  and  _546
REMARK  231  A    between atoms: _546  and  _547
REMARK  232  A    between atoms: _550  and  _552
REMARK  233  A    between atoms: _552  and  _553
REMARK  234  A    between atoms: _552  and  _555
REMARK  235  A    between atoms: _555  and  _556
REMARK  236  A    between atoms: _556  and  _557
REMARK  237  A    between atoms: _557  and  _558
REMARK  238  A    between atoms: _567  and  _569
REMARK  239  A    between atoms: _569  and  _570
REMARK  240  A    between atoms: _569  and  _572
REMARK  241  A    between atoms: _572  and  _573
REMARK  242  A    between atoms: _576  and  _578
REMARK  243  A    between atoms: _578  and  _579
REMARK  244  A    between atoms: _578  and  _581
REMARK  245  A    between atoms: _581  and  _582
REMARK  246  A    between atoms: _588  and  _590
REMARK  247  A    between atoms: _590  and  _591
REMARK  248  A    between atoms: _590  and  _593
REMARK  249  A    between atoms: _596  and  _598
REMARK  250  A    between atoms: _598  and  _599
REMARK  251  A    between atoms: _603  and  _604
REMARK  252  A    between atoms: _609  and  _611
REMARK  253  A    between atoms: _611  and  _612
REMARK  254  A    between atoms: _611  and  _614
REMARK  255  A    between atoms: _614  and  _615
REMARK  256  A    between atoms: _618  and  _620
REMARK  257  A    between atoms: _620  and  _621
REMARK  258  A    between atoms: _620  and  _623
REMARK  259  A    between atoms: _623  and  _624
REMARK  260  A    between atoms: _631  and  _632
REMARK  261  A    between atoms: _637  and  _639
REMARK  262  A    between atoms: _639  and  _640
REMARK  263  A    between atoms: _639  and  _642
REMARK  264  A    between atoms: _645  and  _647
REMARK  265  A    between atoms: _647  and  _648
REMARK  266  A    between atoms: _651  and  _653
REMARK  267  A    between atoms: _653  and  _654
REMARK  268  A    between atoms: _653  and  _656
REMARK  269  A    between atoms: _656  and  _657
REMARK  270  A    between atoms: _662  and  _663
REMARK  271  A    between atoms: _665  and  _667
REMARK  272  A    between atoms: _667  and  _668
REMARK  273  A    between atoms: _667  and  _670
REMARK  274  A    between atoms: _670  and  _671
REMARK  275  A    between atoms: _676  and  _678
REMARK  276  A    between atoms: _678  and  _679
REMARK  277  A    between atoms: _678  and  _681
REMARK  278  A    between atoms: _681  and  _682
REMARK  279  A    between atoms: _685  and  _687
REMARK  280  A    between atoms: _687  and  _688
REMARK  281  A    between atoms: _687  and  _690
REMARK  282  A    between atoms: _690  and  _691
REMARK  283  A    between atoms: _694  and  _696
REMARK  284  A    between atoms: _696  and  _697
REMARK  285  A    between atoms: _696  and  _699
REMARK  286  A    between atoms: _699  and  _700
REMARK  287  A    between atoms: _700  and  _701
REMARK  288  A    between atoms: _701  and  _702
REMARK  289  A    between atoms: _702  and  _703
REMARK  290  A    between atoms: _707  and  _709
REMARK  291  A    between atoms: _709  and  _710
REMARK  292  A    between atoms: _709  and  _712
REMARK  293  A    between atoms: _712  and  _713
REMARK  294  A    between atoms: _719  and  _721
REMARK  295  A    between atoms: _721  and  _722
REMARK  296  A    between atoms: _721  and  _724
REMARK  297  A    between atoms: _724  and  _725
REMARK  298  A    between atoms: _728  and  _730
REMARK  299  A    between atoms: _730  and  _731
REMARK  300  A    between atoms: _730  and  _733
REMARK  301  A    between atoms: _733  and  _734
REMARK  302  A    between atoms: _736  and  _738
REMARK  303  A    between atoms: _738  and  _739
REMARK  304  A    between atoms: _738  and  _741
REMARK  305  A    between atoms: _741  and  _742
REMARK  306  A    between atoms: _745  and  _747
REMARK  307  A    between atoms: _747  and  _748
REMARK  308  A    between atoms: _747  and  _750
REMARK  309  A    between atoms: _750  and  _751
REMARK  310  A    between atoms: _751  and  _752
REMARK  311  A    between atoms: _752  and  _753
REMARK  312  A    between atoms: _762  and  _764
REMARK  313  A    between atoms: _764  and  _765
REMARK  314  A    between atoms: _764  and  _767
REMARK  315  A    between atoms: _767  and  _768
REMARK  316  A    between atoms: _771  and  _773
REMARK  317  A    between atoms: _773  and  _774
REMARK  318  A    between atoms: _773  and  _776
REMARK  319  A    between atoms: _776  and  _777
REMARK  320  A    between atoms: _777  and  _778
REMARK  321  A    between atoms: _780  and  _782
REMARK  322  A    between atoms: _782  and  _783
REMARK  323  A    between atoms: _782  and  _785
REMARK  324  A    between atoms: _788  and  _790
REMARK  325  A    between atoms: _790  and  _791
REMARK  326  A    between atoms: _790  and  _793
REMARK  327  A    between atoms: _793  and  _794
REMARK                            x       y       z     vdW  Elec       q    Type
REMARK                         _______ _______ _______ _____ _____    ______ ____
ROOT
ATOM      1  CA  ILE A   1      82.427  -7.290   1.589  0.00  0.00    +0.133 C 
ENDROOT
BRANCH   1   2
ATOM      2  N   ILE A   1      81.461  -7.873   2.497  0.00  0.00    -0.239 NA
ATOM      3  H   ILE A   1      81.471  -7.587   3.497  0.00  0.00    +0.142 HD
ENDBRANCH   1   2
BRANCH   1   4
ATOM      4  C   ILE A   1      83.840  -7.374   2.135  0.00  0.00    +0.224 C 
ATOM      5  O   ILE A   1      84.060  -7.403   3.346  0.00  0.00    -0.287 OA
ENDBRANCH   1   4
BRANCH   1   6
ATOM      6  CB  ILE A   1      82.081  -5.837   1.277  0.00  0.00    +0.023 C 
ATOM      7  CG2 ILE A   1      80.668  -5.749   0.683  0.00  0.00    +0.002 C 
BRANCH   6   8
ATOM      8  CG1 ILE A   1      82.226  -4.969   2.516  0.00  0.00    +0.002 C 
ATOM      9  CD1 ILE A   1      82.070  -3.458   2.254  0.00  0.00    +0.000 C 
ENDBRANCH   6   8
ENDBRANCH   1   6
TORSDOF 4
REMARK  Name = ../refined-set-2016/4omj/4omj_pocket.pdb
REMARK  327 active torsions:
REMARK  status: ('A' for Active; 'I' for Inactive)
REMARK    1  A    between atoms: _1  and  _3
REMARK    2  A    between atoms: _3  and  _4
REMARK    3  A    between atoms: _3  and  _6
REMARK    4  A    between atoms: _6  and  _7
REMARK    5  A    between atoms: _10  and  _12
REMARK    6  A    between atoms: _12  and  _13
REMARK    7  A    between atoms: _12  and  _15
REMARK    8  A    between atoms: _15  and  _16
REMARK    9  A    between atoms: _21  and  _22
REMARK   10  A    between atoms: _24  and  _26
REMARK   11  A    between atoms: _26  and  _27
REMARK   12  A    between atoms: _26  and  _29
REMARK   13  A    between atoms: _29  and  _30
REMARK   14  A    between atoms: _33  and  _35
REMARK   15  A    between atoms: _35  and  _36
REMARK   16  A    between atoms: _35  and  _38
REMARK   17  A    between atoms: _38  and  _39
REMARK   18  A    between atoms: _41  and  _43
REMARK   19  A    between atoms: _43  and  _44
REMARK   20  A    between atoms: _43  and  _46
REMARK   21  A    between atoms: _46  and  _47
REMARK   22  A    between atoms: _57  and  _59
REMARK   23  A    between atoms: _59  and  _60
REMARK   24  A    between atoms: _59  and  _62
REMARK   25  A    between atoms: _62  and  _63
REMARK   26  A    between atoms: _66  and  _68
REMARK   27  A    between atoms: _68  and  _69
REMARK   28  A    between atoms: _68  and  _71
REMARK   29  A    between atoms: _71  and  _72
REMARK   30  A    between atoms: _75  and  _77
REMARK   31  A    between atoms: _77  and  _78
REMARK   32  A    between atoms: _77  and  _80
REMARK   33  A    between atoms: _80  and  _81
REMARK   34  A    between atoms: _84  and  _86
REMARK   35  A    between atoms: _86  and  _87
REMARK   36  A    between atoms: _89  and  _91
REMARK   37  A    between atoms: _91  and  _92
REMARK   38  A    between atoms: _91  and  _94
REMARK   39  A    between atoms: _94  and  _95
REMARK   40  A    between atoms: _98  and  _100
REMARK   41  A    between atoms: _100  and  _101
REMARK   42  A    between atoms: _100  and  _103
REMARK   43  A    between atoms: _103  and  _104
REMARK   44  A    between atoms: _107  and  _109
REMARK   45  A    between atoms: _109  and  _110
REMARK   46  A    between atoms: _113  and  _115
REMARK   47  A    between atoms: _115  and  _116
REMARK   48  A    between atoms: _115  and  _118
REMARK   49  A    between atoms: _118  and  _119
REMARK   50  A    between atoms: _119  and  _120
REMARK   51  A    between atoms: _120  and  _121
REMARK   52  A    between atoms: _121  and  _122
REMARK   53  A    between atoms: _126  and  _128
REMARK   54  A    between atoms: _128  and  _129
REMARK   55  A    between atoms: _131  and  _133
REMARK   56  A    between atoms: _133  and  _134
REMARK   57  A    between atoms: _133  and  _136
REMARK   58  A    between atoms: _136  and  _137
REMARK   59  A    between atoms: _140  and  _142
REMARK   60  A    between atoms: _142  and  _143
REMARK   61  A    between atoms: _142  and  _145
REMARK   62  A    between atoms: _145  and  _146
REMARK   63  A    between atoms: _149  and  _151
REMARK   64  A    between atoms: _151  and  _152
REMARK   65  A    between atoms: _151  and  _154
REMARK   66  A    between atoms: _154  and  _155
REMARK   67  A    between atoms: _161  and  _163
REMARK   68  A    between atoms: _163  and  _164
REMARK   69  A    between atoms: _167  and  _169
REMARK   70  A    between atoms: _169  and  _170
REMARK   71  A    between atoms: _169  and  _172
REMARK   72  A    between atoms: _172  and  _173
REMARK   73  A    between atoms: _175  and  _177
REMARK   74  A    between atoms: _177  and  _178
REMARK   75  A    between atoms: _177  and  _180
REMARK   76  A    between atoms: _180  and  _181
REMARK   77  A    between atoms: _181  and  _182
REMARK   78  A    between atoms: _182  and  _183
REMARK   79  A    between atoms: _183  and  _184
REMARK   80  A    between atoms: _188  and  _190
REMARK   81  A    between atoms: _190  and  _191
REMARK   82  A    between atoms: _190  and  _193
REMARK   83  A    between atoms: _193  and  _194
REMARK   84  A    between atoms: _194  and  _195
REMARK   85  A    between atoms: _200  and  _202
REMARK   86  A    between atoms: _202  and  _203
REMARK   87  A    between atoms: _202  and  _205
REMARK   88  A    between atoms: _205  and  _206
REMARK   89  A    between atoms: _209  and  _211
REMARK   90  A    between atoms: _211  and  _212
REMARK   91  A    between atoms: _211  and  _214
REMARK   92  A    between atoms: _214  and  _215
REMARK   93  A    between atoms: _218  and  _220
REMARK   94  A    between atoms: _220  and  _221
REMARK   95  A    between atoms: _220  and  _223
REMARK   96  A    between atoms: _223  and  _224
REMARK   97  A    between atoms: _227  and  _229
REMARK   98  A    between atoms: _229  and  _230
REMARK   99  A    between atoms: _229  and  _232
REMARK  100  A    between atoms: _232  and  _233
REMARK  101  A    between atoms: _233  and  _234
REMARK  102  A    between atoms: _234  and  _235
REMARK  103  A    between atoms: _244  and  _246
REMARK  104  A    between atoms: _246  and  _247
REMARK  105  A    between atoms: _246  and  _249
REMARK  106  A    between atoms: _249  and  _250
REMARK  107  A    between atoms: _253  and  _255
REMARK  108  A    between atoms: _255  and  _256
REMARK  109  A    between atoms: _255  and  _258
REMARK  110  A    between atoms: _258  and  _259
REMARK  111  A    between atoms: _259  and  _260
REMARK  112  A    between atoms: _260  and  _261
REMARK  113  A    between atoms: _261  and  _262
REMARK  114  A    between atoms: _266  and  _268
REMARK  115  A    between atoms: _268  and  _269
REMARK  116  A    between atoms: _268  and  _271
REMARK  117  A    between atoms: _271  and  _272
REMARK  118  A    between atoms: _272  and  _273
REMARK  119  A    between atoms: _275  and  _277
REMARK  120  A    between atoms: _277  and  _278
REMARK  121  A    between atoms: _277  and  _280
REMARK  122  A    between atoms: _280  and  _281
REMARK  123  A    between atoms: _281  and  _282
REMARK  124  A    between atoms: _285  and  _287
REMARK  125  A    between atoms: _287  and  _288
REMARK  126  A    between atoms: _287  and  _290
REMARK  127  A    between atoms: _292  and  _294
REMARK  128  A    between atoms: _294  and  _295
REMARK  129  A    between atoms: _294  and  _297
REMARK  130  A    between atoms: _297  and  _298
REMARK  131  A    between atoms: _301  and  _303
REMARK  132  A    between atoms: _303  and  _304
REMARK  133  A    between atoms: _303  and  _306
REMARK  134  A    between atoms: _306  and  _307
REMARK  135  A    between atoms: _310  and  _312
REMARK  136  A    between atoms: _312  and  _313
REMARK  137  A    between atoms: _312  and  _315
REMARK  138  A    between atoms: _315  and  _316
REMARK  139  A    between atoms: _319  and  _321
REMARK  140  A    between atoms: _321  and  _322
REMARK  141  A    between atoms: _321  and  _324
REMARK  142  A    between atoms: _324  and  _325
REMARK  143  A    between atoms: _330  and  _331
REMARK  144  A    between atoms: _333  and  _335
REMARK  145  A    between atoms: _335  and  _336
REMARK  146  A    between atoms: _335  and  _338
REMARK  147  A    between atoms: _338  and  _339
REMARK  148  A    between atoms: _342  and  _344
REMARK  149  A    between atoms: _344  and  _345
REMARK  150  A    between atoms: _344  and  _347
REMARK  151  A    between atoms: _349  and  _351
REMARK  152  A    between atoms: _351  and  _352
REMARK  153  A    between atoms: _351  and  _354
REMARK  154  A    between atoms: _354  and  _355
REMARK  155  A    between atoms: _358  and  _360
REMARK  156  A    between atoms: _360  and  _361
REMARK  157  A    between atoms: _363  and  _365
REMARK  158  A    between atoms: _365  and  _366
REMARK  159  A    between atoms: _365  and  _368
REMARK  160  A    between atoms: _368  and  _369
REMARK  161  A    between atoms: _369  and  _370
REMARK  162  A    between atoms: _370  and  _371
REMARK  163  A    between atoms: _371  and  _372
REMARK  164  A    between atoms: _376  and  _378
REMARK  165  A    between atoms: _378  and  _379
REMARK  166  A    between atoms: _378  and  _381
REMARK  167  A    between atoms: _381  and  _382
REMARK  168  A    between atoms: _387  and  _389
REMARK  169  A    between atoms: _389  and  _390
REMARK  170  A    between atoms: _389  and  _392
REMARK  171  A    between atoms: _392  and  _393
REMARK  172  A    between atoms: _396  and  _398
REMARK  173  A    between atoms: _398  and  _399
REMARK  174  A    between atoms: _398  and  _401
REMARK  175  A    between atoms: _401  and  _402
REMARK  176  A    between atoms: _412  and  _414
REMARK  177  A    between atoms: _414  and  _415
REMARK  178  A    between atoms: _414  and  _417
REMARK  179  A    between atoms: _417  and  _418
REMARK  180  A    between atoms: _418  and  _419
REMARK  181  A    between atoms: _419  and  _420
REMARK  182  A    between atoms: _420  and  _421
REMARK  183  A    between atoms: _426  and  _427
REMARK  184  A    between atoms: _432  and  _434
REMARK  185  A    between atoms: _434  and  _435
REMARK  186  A    between atoms: _438  and  _440
REMARK  187  A    between atoms: _440  and  _441
REMARK  188  A    between atoms: _440  and  _443
REMARK  189  A    between atoms: _446  and  _448
REMARK  190  A    between atoms: _448  and  _449
REMARK  191  A    between atoms: _448  and  _451
REMARK  192  A    between atoms: _451  and  _452
REMARK  193  A    between atoms: _452  and  _453
REMARK  194  A    between atoms: _456  and  _458
REMARK  195  A    between atoms: _458  and  _459
REMARK  196  A    between atoms: _462  and  _464
REMARK  197  A    between atoms: _464  and  _465
REMARK  198  A    between atoms: _464  and  _467
REMARK  199  A    between atoms: _467  and  _468
REMARK  200  A    between atoms: _473  and  _474
REMARK  201  A    between atoms: _476  and  _478
REMARK  202  A    between atoms: _478  and  _479
REMARK  203  A    between atoms: _481  and  _483
REMARK  204  A    between atoms: _483  and  _484
REMARK  205  A    between atoms: _483  and  _486
REMARK  206  A    between atoms: _486  and  _487
REMARK  207  A    between atoms: _487  and  _488
REMARK  208  A    between atoms: _491  and  _493
REMARK  209  A    between atoms: _493  and  _494
REMARK  210  A    between atoms: _493  and  _496
REMARK  211  A    between atoms: _496  and  _497
REMARK  212  A    between atoms: _503  and  _505
REMARK  213  A    between atoms: _505  and  _506
REMARK  214  A    between atoms: _505  and  _508
REMARK  215  A    between atoms: _508  and  _509
REMARK  216  A    between atoms: _512  and  _514
REMARK  217  A    between atoms: _514  and  _515
REMARK  218  A    between atoms: _514  and  _517
REMARK  219  A    between atoms: _519  and  _521
REMARK  220  A    between atoms: _521  and  _522
REMARK  221  A    between atoms: _521  and  _524
REMARK  222  A    between atoms: _524  and  _525
REMARK  223  A    between atoms: _531  and  _533
REMARK  224  A    between atoms: _533  and  _534
REMARK  225  A    between atoms: _533  and  _536
REMARK  226  A    between atoms: _536  and  _537
REMARK  227  A    between atoms: _537  and  _538
REMARK  228  A    between atoms: _541  and  _543
REMARK  229  A    between atoms: _543  and  _544
REMARK  230  A    between atoms: _543  and  _546
REMARK  231  A    between atoms: _546  and  _547
REMARK  232  A    between atoms: _550  and  _552
REMARK  233  A    between atoms: _552  and  _553
REMARK  234  A    between atoms: _552  and  _555
REMARK  235  A    between atoms: _555  and  _556
REMARK  236  A    between atoms: _556  and  _557
REMARK  237  A    between atoms: _557  and  _558
REMARK  238  A    between atoms: _567  and  _569
REMARK  239  A    between atoms: _569  and  _570
REMARK  240  A    between atoms: _569  and  _572
REMARK  241  A    between atoms: _572  and  _573
REMARK  242  A    between atoms: _576  and  _578
REMARK  243  A    between atoms: _578  and  _579
REMARK  244  A    between atoms: _578  and  _581
REMARK  245  A    between atoms: _581  and  _582
REMARK  246  A    between atoms: _588  and  _590
REMARK  247  A    between atoms: _590  and  _591
REMARK  248  A    between atoms: _590  and  _593
REMARK  249  A    between atoms: _596  and  _598
REMARK  250  A    between atoms: _598  and  _599
REMARK  251  A    between atoms: _603  and  _604
REMARK  252  A    between atoms: _609  and  _611
REMARK  253  A    between atoms: _611  and  _612
REMARK  254  A    between atoms: _611  and  _614
REMARK  255  A    between atoms: _614  and  _615
REMARK  256  A    between atoms: _618  and  _620
REMARK  257  A    between atoms: _620  and  _621
REMARK  258  A    between atoms: _620  and  _623
REMARK  259  A    between atoms: _623  and  _624
REMARK  260  A    between atoms: _631  and  _632
REMARK  261  A    between atoms: _637  and  _639
REMARK  262  A    between atoms: _639  and  _640
REMARK  263  A    between atoms: _639  and  _642
REMARK  264  A    between atoms: _645  and  _647
REMARK  265  A    between atoms: _647  and  _648
REMARK  266  A    between atoms: _651  and  _653
REMARK  267  A    between atoms: _653  and  _654
REMARK  268  A    between atoms: _653  and  _656
REMARK  269  A    between atoms: _656  and  _657
REMARK  270  A    between atoms: _662  and  _663
REMARK  271  A    between atoms: _665  and  _667
REMARK  272  A    between atoms: _667  and  _668
REMARK  273  A    between atoms: _667  and  _670
REMARK  274  A    between atoms: _670  and  _671
REMARK  275  A    between atoms: _676  and  _678
REMARK  276  A    between atoms: _678  and  _679
REMARK  277  A    between atoms: _678  and  _681
REMARK  278  A    between atoms: _681  and  _682
REMARK  279  A    between atoms: _685  and  _687
REMARK  280  A    between atoms: _687  and  _688
REMARK  281  A    between atoms: _687  and  _690
REMARK  282  A    between atoms: _690  and  _691
REMARK  283  A    between atoms: _694  and  _696
REMARK  284  A    between atoms: _696  and  _697
REMARK  285  A    between atoms: _696  and  _699
REMARK  286  A    between atoms: _699  and  _700
REMARK  287  A    between atoms: _700  and  _701
REMARK  288  A    between atoms: _701  and  _702
REMARK  289  A    between atoms: _702  and  _703
REMARK  290  A    between atoms: _707  and  _709
REMARK  291  A    between atoms: _709  and  _710
REMARK  292  A    between atoms: _709  and  _712
REMARK  293  A    between atoms: _712  and  _713
REMARK  294  A    between atoms: _719  and  _721
REMARK  295  A    between atoms: _721  and  _722
REMARK  296  A    between atoms: _721  and  _724
REMARK  297  A    between atoms: _724  and  _725
REMARK  298  A    between atoms: _728  and  _730
REMARK  299  A    between atoms: _730  and  _731
REMARK  300  A    between atoms: _730  and  _733
REMARK  301  A    between atoms: _733  and  _734
REMARK  302  A    between atoms: _736  and  _738
REMARK  303  A    between atoms: _738  and  _739
REMARK  304  A    between atoms: _738  and  _741
REMARK  305  A    between atoms: _741  and  _742
REMARK  306  A    between atoms: _745  and  _747
REMARK  307  A    between atoms: _747  and  _748
REMARK  308  A    between atoms: _747  and  _750
REMARK  309  A    between atoms: _750  and  _751
REMARK  310  A    between atoms: _751  and  _752
REMARK  311  A    between atoms: _752  and  _753
REMARK  312  A    between atoms: _762  and  _764
REMARK  313  A    between atoms: _764  and  _765
REMARK  314  A    between atoms: _764  and  _767
REMARK  315  A    between atoms: _767  and  _768
REMARK  316  A    between atoms: _771  and  _773
REMARK  317  A    between atoms: _773  and  _774
REMARK  318  A    between atoms: _773  and  _776
REMARK  319  A    between atoms: _776  and  _777
REMARK  320  A    between atoms: _777  and  _778
REMARK  321  A    between atoms: _780  and  _782
REMARK  322  A    between atoms: _782  and  _783
REMARK  323  A    between atoms: _782  and  _785
REMARK  324  A    between atoms: _788  and  _790
REMARK  325  A    between atoms: _790  and  _791
REMARK  326  A    between atoms: _790  and  _793
REMARK  327  A    between atoms: _793  and  _794
REMARK                            x       y       z     vdW  Elec       q    Type
REMARK                         _______ _______ _______ _____ _____    ______ ____
ROOT
ATOM      1  CA  TYR A   3      92.732  -0.328   2.577  0.00  0.00    +0.153 C 
ENDROOT
BRANCH   1   3
ATOM      2  C   ILE A   2      91.857  -1.912   0.939  0.00  0.00    +0.241 C 
ATOM      3  N   TYR A   3      92.569  -1.650   2.027  0.00  0.00    -0.297 N 
ATOM      4  H   TYR A   3      93.036  -2.444   2.511  0.00  0.00    +0.150 HD
ATOM      5  O   ILE A   2      91.384  -1.062   0.230  0.00  0.00    -0.273 OA
BRANCH   2   6
ATOM      6  CA  ILE A   2      91.602  -3.384   0.653  0.00  0.00    +0.148 C 
BRANCH   6   9
ATOM      7  C   ILE A   1      89.594  -4.218   1.780  0.00  0.00    +0.238 C 
ATOM      8  O   ILE A   1      90.218  -4.829   2.664  0.00  0.00    -0.274 OA
ATOM      9  N   ILE A   2      90.158  -3.581   0.759  0.00  0.00    -0.297 N 
ATOM     10  H   ILE A   2      89.547  -3.208   0.005  0.00  0.00    +0.150 HD
BRANCH   7  11
ATOM     11  CA  ILE A   1      88.071  -4.123   1.814  0.00  0.00    +0.145 C 
BRANCH  11  12
ATOM     12  N   ILE A   1      87.490  -5.427   2.077  0.00  0.00    -0.238 NA
ATOM     13  H   ILE A   1      87.672  -5.893   2.989  0.00  0.00    +0.142 HD
ENDBRANCH  11  12
BRANCH  11  14
ATOM     14  CB  ILE A   1      87.654  -3.081   2.904  0.00  0.00    +0.025 C 
ATOM     15  CG2 ILE A   1      88.398  -1.723   2.722  0.00  0.00    +0.002 C 
BRANCH  14  16
ATOM     16  CG1 ILE A   1      86.140  -2.892   2.898  0.00  0.00    +0.002 C 
ATOM     17  CD1 ILE A   1      85.614  -1.966   3.981  0.00  0.00    +0.000 C 
ENDBRANCH  14  16
ENDBRANCH  11  14
ENDBRANCH   7  11
ENDBRANCH   6   9
BRANCH   6  18
ATOM     18  CB  ILE A   2      92.148  -3.716  -0.746  0.00  0.00    +0.027 C 
ATOM     19  CG2 ILE A   2      93.669  -3.645  -0.745  0.00  0.00    +0.002 C 
BRANCH  18  20
ATOM     20  CG1 ILE A   2      91.653  -5.089  -1.241  0.00  0.00    +0.002 C 
ATOM     21  CD1 ILE A   2      91.955  -6.236  -0.313  0.00  0.00    +0.000 C 
ENDBRANCH  18  20
ENDBRANCH   6  18
ENDBRANCH   2   6
ENDBRANCH   1   3
BRANCH   1  22
ATOM     22  C   TYR A   3      94.190   0.081   2.373  0.00  0.00    +0.241 C 
ATOM     23  O   TYR A   3      95.067  -0.314   3.144  0.00  0.00    -0.273 OA
ATOM     24  N   ASP A   4      94.436   0.845   1.315  0.00  0.00    -0.297 N 
ATOM     25  H   ASP A   4      93.632   1.196   0.756  0.00  0.00    +0.150 HD
BRANCH  24  26
ATOM     26  CA  ASP A   4      95.796   1.215   0.902  0.00  0.00    +0.160 C 
BRANCH  26  27
ATOM     27  C   ASP A   4      96.239   2.473   1.636  0.00  0.00    +0.241 C 
ATOM     28  N   CYS A   5      97.176   2.297   2.570  0.00  0.00    -0.297 N 
ATOM     29  H   CYS A   5      97.590   1.352   2.700  0.00  0.00    +0.150 HD
ATOM     30  O   ASP A   4      95.763   3.578   1.337  0.00  0.00    -0.273 OA
BRANCH  28  31
ATOM     31  CA  CYS A   5      97.635   3.395   3.414  0.00  0.00    +0.149 C 
BRANCH  31  32
ATOM     32  C   CYS A   5      98.974   3.940   2.977  0.00  0.00    +0.228 C 
ATOM     33  O   CYS A   5      99.582   4.735   3.700  0.00  0.00    -0.286 OA
ENDBRANCH  31  32
BRANCH  31  34
ATOM     34  CB  CYS A   5      97.684   2.948   4.875  0.00  0.00    +0.096 C 
ATOM     35  SG  CYS A   5      96.045   3.064   5.621  0.00  0.00    -0.080 S 
ENDBRANCH  31  34
ENDBRANCH  28  31
ENDBRANCH  26  27
BRANCH  26  36
ATOM     36  CB  ASP A   4      95.849   1.433  -0.598  0.00  0.00    +0.143 C 
BRANCH  36  37
ATOM     37  CG  ASP A   4      97.235   1.757  -1.101  0.00  0.00    +0.367 C 
ATOM     38  OD2 ASP A   4      98.118   2.046  -0.268  0.00  0.00    -0.246 OA
ATOM     39  OD1 ASP A   4      97.450   1.719  -2.327  0.00  0.00    -0.246 OA
ENDBRANCH  36  37
ENDBRANCH  26  36
ENDBRANCH  24  26
ENDBRANCH   1  22
BRANCH   1  40
ATOM     40  CB  TYR A   3      92.316  -0.371   4.046  0.00  0.00    +0.055 C 
BRANCH  40  41
ATOM     41  CG  TYR A   3      91.913   0.945   4.626  0.00  0.00    -0.020 A 
ATOM     42  CD2 TYR A   3      92.790   1.651   5.416  0.00  0.00    -0.001 A 
ATOM     43  CE2 TYR A   3      92.432   2.863   5.957  0.00  0.00    +0.036 A 
ATOM     44  CZ  TYR A   3      91.192   3.380   5.710  0.00  0.00    +0.134 A 
ATOM     45  CE1 TYR A   3      90.296   2.698   4.940  0.00  0.00    +0.036 A 
ATOM     46  CD1 TYR A   3      90.659   1.466   4.403  0.00  0.00    -0.001 A 
BRANCH  44  47
ATOM     47  OH  TYR A   3      90.844   4.593   6.259  0.00  0.00    -0.506 OA
ATOM     48  HH  TYR A   3      89.921   4.825   5.986  0.00  0.00    +0.292 HD
ENDBRANCH  44  47
ENDBRANCH  40  41
ENDBRANCH   1  40
TORSDOF 20
REMARK  Name = ../refined-set-2016/4omj/4omj_pocket.pdb
REMARK  327 active torsions:
REMARK  status: ('A' for Active; 'I' for Inactive)
REMARK    1  A    between atoms: _1  and  _3
REMARK    2  A    between atoms: _3  and  _4
REMARK    3  A    between atoms: _3  and  _6
REMARK    4  A    between atoms: _6  and  _7
REMARK    5  A    between atoms: _10  and  _12
REMARK    6  A    between atoms: _12  and  _13
REMARK    7  A    between atoms: _12  and  _15
REMARK    8  A    between atoms: _15  and  _16
REMARK    9  A    between atoms: _21  and  _22
REMARK   10  A    between atoms: _24  and  _26
REMARK   11  A    between atoms: _26  and  _27
REMARK   12  A    between atoms: _26  and  _29
REMARK   13  A    between atoms: _29  and  _30
REMARK   14  A    between atoms: _33  and  _35
REMARK   15  A    between atoms: _35  and  _36
REMARK   16  A    between atoms: _35  and  _38
REMARK   17  A    between atoms: _38  and  _39
REMARK   18  A    between atoms: _41  and  _43
REMARK   19  A    between atoms: _43  and  _44
REMARK   20  A    between atoms: _43  and  _46
REMARK   21  A    between atoms: _46  and  _47
REMARK   22  A    between atoms: _57  and  _59
REMARK   23  A    between atoms: _59  and  _60
REMARK   24  A    between atoms: _59  and  _62
REMARK   25  A    between atoms: _62  and  _63
REMARK   26  A    between atoms: _66  and  _68
REMARK   27  A    between atoms: _68  and  _69
REMARK   28  A    between atoms: _68  and  _71
REMARK   29  A    between atoms: _71  and  _72
REMARK   30  A    between atoms: _75  and  _77
REMARK   31  A    between atoms: _77  and  _78
REMARK   32  A    between atoms: _77  and  _80
REMARK   33  A    between atoms: _80  and  _81
REMARK   34  A    between atoms: _84  and  _86
REMARK   35  A    between atoms: _86  and  _87
REMARK   36  A    between atoms: _89  and  _91
REMARK   37  A    between atoms: _91  and  _92
REMARK   38  A    between atoms: _91  and  _94
REMARK   39  A    between atoms: _94  and  _95
REMARK   40  A    between atoms: _98  and  _100
REMARK   41  A    between atoms: _100  and  _101
REMARK   42  A    between atoms: _100  and  _103
REMARK   43  A    between atoms: _103  and  _104
REMARK   44  A    between atoms: _107  and  _109
REMARK   45  A    between atoms: _109  and  _110
REMARK   46  A    between atoms: _113  and  _115
REMARK   47  A    between atoms: _115  and  _116
REMARK   48  A    between atoms: _115  and  _118
REMARK   49  A    between atoms: _118  and  _119
REMARK   50  A    between atoms: _119  and  _120
REMARK   51  A    between atoms: _120  and  _121
REMARK   52  A    between atoms: _121  and  _122
REMARK   53  A    between atoms: _126  and  _128
REMARK   54  A    between atoms: _128  and  _129
REMARK   55  A    between atoms: _131  and  _133
REMARK   56  A    between atoms: _133  and  _134
REMARK   57  A    between atoms: _133  and  _136
REMARK   58  A    between atoms: _136  and  _137
REMARK   59  A    between atoms: _140  and  _142
REMARK   60  A    between atoms: _142  and  _143
REMARK   61  A    between atoms: _142  and  _145
REMARK   62  A    between atoms: _145  and  _146
REMARK   63  A    between atoms: _149  and  _151
REMARK   64  A    between atoms: _151  and  _152
REMARK   65  A    between atoms: _151  and  _154
REMARK   66  A    between atoms: _154  and  _155
REMARK   67  A    between atoms: _161  and  _163
REMARK   68  A    between atoms: _163  and  _164
REMARK   69  A    between atoms: _167  and  _169
REMARK   70  A    between atoms: _169  and  _170
REMARK   71  A    between atoms: _169  and  _172
REMARK   72  A    between atoms: _172  and  _173
REMARK   73  A    between atoms: _175  and  _177
REMARK   74  A    between atoms: _177  and  _178
REMARK   75  A    between atoms: _177  and  _180
REMARK   76  A    between atoms: _180  and  _181
REMARK   77  A    between atoms: _181  and  _182
REMARK   78  A    between atoms: _182  and  _183
REMARK   79  A    between atoms: _183  and  _184
REMARK   80  A    between atoms: _188  and  _190
REMARK   81  A    between atoms: _190  and  _191
REMARK   82  A    between atoms: _190  and  _193
REMARK   83  A    between atoms: _193  and  _194
REMARK   84  A    between atoms: _194  and  _195
REMARK   85  A    between atoms: _200  and  _202
REMARK   86  A    between atoms: _202  and  _203
REMARK   87  A    between atoms: _202  and  _205
REMARK   88  A    between atoms: _205  and  _206
REMARK   89  A    between atoms: _209  and  _211
REMARK   90  A    between atoms: _211  and  _212
REMARK   91  A    between atoms: _211  and  _214
REMARK   92  A    between atoms: _214  and  _215
REMARK   93  A    between atoms: _218  and  _220
REMARK   94  A    between atoms: _220  and  _221
REMARK   95  A    between atoms: _220  and  _223
REMARK   96  A    between atoms: _223  and  _224
REMARK   97  A    between atoms: _227  and  _229
REMARK   98  A    between atoms: _229  and  _230
REMARK   99  A    between atoms: _229  and  _232
REMARK  100  A    between atoms: _232  and  _233
REMARK  101  A    between atoms: _233  and  _234
REMARK  102  A    between atoms: _234  and  _235
REMARK  103  A    between atoms: _244  and  _246
REMARK  104  A    between atoms: _246  and  _247
REMARK  105  A    between atoms: _246  and  _249
REMARK  106  A    between atoms: _249  and  _250
REMARK  107  A    between atoms: _253  and  _255
REMARK  108  A    between atoms: _255  and  _256
REMARK  109  A    between atoms: _255  and  _258
REMARK  110  A    between atoms: _258  and  _259
REMARK  111  A    between atoms: _259  and  _260
REMARK  112  A    between atoms: _260  and  _261
REMARK  113  A    between atoms: _261  and  _262
REMARK  114  A    between atoms: _266  and  _268
REMARK  115  A    between atoms: _268  and  _269
REMARK  116  A    between atoms: _268  and  _271
REMARK  117  A    between atoms: _271  and  _272
REMARK  118  A    between atoms: _272  and  _273
REMARK  119  A    between atoms: _275  and  _277
REMARK  120  A    between atoms: _277  and  _278
REMARK  121  A    between atoms: _277  and  _280
REMARK  122  A    between atoms: _280  and  _281
REMARK  123  A    between atoms: _281  and  _282
REMARK  124  A    between atoms: _285  and  _287
REMARK  125  A    between atoms: _287  and  _288
REMARK  126  A    between atoms: _287  and  _290
REMARK  127  A    between atoms: _292  and  _294
REMARK  128  A    between atoms: _294  and  _295
REMARK  129  A    between atoms: _294  and  _297
REMARK  130  A    between atoms: _297  and  _298
REMARK  131  A    between atoms: _301  and  _303
REMARK  132  A    between atoms: _303  and  _304
REMARK  133  A    between atoms: _303  and  _306
REMARK  134  A    between atoms: _306  and  _307
REMARK  135  A    between atoms: _310  and  _312
REMARK  136  A    between atoms: _312  and  _313
REMARK  137  A    between atoms: _312  and  _315
REMARK  138  A    between atoms: _315  and  _316
REMARK  139  A    between atoms: _319  and  _321
REMARK  140  A    between atoms: _321  and  _322
REMARK  141  A    between atoms: _321  and  _324
REMARK  142  A    between atoms: _324  and  _325
REMARK  143  A    between atoms: _330  and  _331
REMARK  144  A    between atoms: _333  and  _335
REMARK  145  A    between atoms: _335  and  _336
REMARK  146  A    between atoms: _335  and  _338
REMARK  147  A    between atoms: _338  and  _339
REMARK  148  A    between atoms: _342  and  _344
REMARK  149  A    between atoms: _344  and  _345
REMARK  150  A    between atoms: _344  and  _347
REMARK  151  A    between atoms: _349  and  _351
REMARK  152  A    between atoms: _351  and  _352
REMARK  153  A    between atoms: _351  and  _354
REMARK  154  A    between atoms: _354  and  _355
REMARK  155  A    between atoms: _358  and  _360
REMARK  156  A    between atoms: _360  and  _361
REMARK  157  A    between atoms: _363  and  _365
REMARK  158  A    between atoms: _365  and  _366
REMARK  159  A    between atoms: _365  and  _368
REMARK  160  A    between atoms: _368  and  _369
REMARK  161  A    between atoms: _369  and  _370
REMARK  162  A    between atoms: _370  and  _371
REMARK  163  A    between atoms: _371  and  _372
REMARK  164  A    between atoms: _376  and  _378
REMARK  165  A    between atoms: _378  and  _379
REMARK  166  A    between atoms: _378  and  _381
REMARK  167  A    between atoms: _381  and  _382
REMARK  168  A    between atoms: _387  and  _389
REMARK  169  A    between atoms: _389  and  _390
REMARK  170  A    between atoms: _389  and  _392
REMARK  171  A    between atoms: _392  and  _393
REMARK  172  A    between atoms: _396  and  _398
REMARK  173  A    between atoms: _398  and  _399
REMARK  174  A    between atoms: _398  and  _401
REMARK  175  A    between atoms: _401  and  _402
REMARK  176  A    between atoms: _412  and  _414
REMARK  177  A    between atoms: _414  and  _415
REMARK  178  A    between atoms: _414  and  _417
REMARK  179  A    between atoms: _417  and  _418
REMARK  180  A    between atoms: _418  and  _419
REMARK  181  A    between atoms: _419  and  _420
REMARK  182  A    between atoms: _420  and  _421
REMARK  183  A    between atoms: _426  and  _427
REMARK  184  A    between atoms: _432  and  _434
REMARK  185  A    between atoms: _434  and  _435
REMARK  186  A    between atoms: _438  and  _440
REMARK  187  A    between atoms: _440  and  _441
REMARK  188  A    between atoms: _440  and  _443
REMARK  189  A    between atoms: _446  and  _448
REMARK  190  A    between atoms: _448  and  _449
REMARK  191  A    between atoms: _448  and  _451
REMARK  192  A    between atoms: _451  and  _452
REMARK  193  A    between atoms: _452  and  _453
REMARK  194  A    between atoms: _456  and  _458
REMARK  195  A    between atoms: _458  and  _459
REMARK  196  A    between atoms: _462  and  _464
REMARK  197  A    between atoms: _464  and  _465
REMARK  198  A    between atoms: _464  and  _467
REMARK  199  A    between atoms: _467  and  _468
REMARK  200  A    between atoms: _473  and  _474
REMARK  201  A    between atoms: _476  and  _478
REMARK  202  A    between atoms: _478  and  _479
REMARK  203  A    between atoms: _481  and  _483
REMARK  204  A    between atoms: _483  and  _484
REMARK  205  A    between atoms: _483  and  _486
REMARK  206  A    between atoms: _486  and  _487
REMARK  207  A    between atoms: _487  and  _488
REMARK  208  A    between atoms: _491  and  _493
REMARK  209  A    between atoms: _493  and  _494
REMARK  210  A    between atoms: _493  and  _496
REMARK  211  A    between atoms: _496  and  _497
REMARK  212  A    between atoms: _503  and  _505
REMARK  213  A    between atoms: _505  and  _506
REMARK  214  A    between atoms: _505  and  _508
REMARK  215  A    between atoms: _508  and  _509
REMARK  216  A    between atoms: _512  and  _514
REMARK  217  A    between atoms: _514  and  _515
REMARK  218  A    between atoms: _514  and  _517
REMARK  219  A    between atoms: _519  and  _521
REMARK  220  A    between atoms: _521  and  _522
REMARK  221  A    between atoms: _521  and  _524
REMARK  222  A    between atoms: _524  and  _525
REMARK  223  A    between atoms: _531  and  _533
REMARK  224  A    between atoms: _533  and  _534
REMARK  225  A    between atoms: _533  and  _536
REMARK  226  A    between atoms: _536  and  _537
REMARK  227  A    between atoms: _537  and  _538
REMARK  228  A    between atoms: _541  and  _543
REMARK  229  A    between atoms: _543  and  _544
REMARK  230  A    between atoms: _543  and  _546
REMARK  231  A    between atoms: _546  and  _547
REMARK  232  A    between atoms: _550  and  _552
REMARK  233  A    between atoms: _552  and  _553
REMARK  234  A    between atoms: _552  and  _555
REMARK  235  A    between atoms: _555  and  _556
REMARK  236  A    between atoms: _556  and  _557
REMARK  237  A    between atoms: _557  and  _558
REMARK  238  A    between atoms: _567  and  _569
REMARK  239  A    between atoms: _569  and  _570
REMARK  240  A    between atoms: _569  and  _572
REMARK  241  A    between atoms: _572  and  _573
REMARK  242  A    between atoms: _576  and  _578
REMARK  243  A    between atoms: _578  and  _579
REMARK  244  A    between atoms: _578  and  _581
REMARK  245  A    between atoms: _581  and  _582
REMARK  246  A    between atoms: _588  and  _590
REMARK  247  A    between atoms: _590  and  _591
REMARK  248  A    between atoms: _590  and  _593
REMARK  249  A    between atoms: _596  and  _598
REMARK  250  A    between atoms: _598  and  _599
REMARK  251  A    between atoms: _603  and  _604
REMARK  252  A    between atoms: _609  and  _611
REMARK  253  A    between atoms: _611  and  _612
REMARK  254  A    between atoms: _611  and  _614
REMARK  255  A    between atoms: _614  and  _615
REMARK  256  A    between atoms: _618  and  _620
REMARK  257  A    between atoms: _620  and  _621
REMARK  258  A    between atoms: _620  and  _623
REMARK  259  A    between atoms: _623  and  _624
REMARK  260  A    between atoms: _631  and  _632
REMARK  261  A    between atoms: _637  and  _639
REMARK  262  A    between atoms: _639  and  _640
REMARK  263  A    between atoms: _639  and  _642
REMARK  264  A    between atoms: _645  and  _647
REMARK  265  A    between atoms: _647  and  _648
REMARK  266  A    between atoms: _651  and  _653
REMARK  267  A    between atoms: _653  and  _654
REMARK  268  A    between atoms: _653  and  _656
REMARK  269  A    between atoms: _656  and  _657
REMARK  270  A    between atoms: _662  and  _663
REMARK  271  A    between atoms: _665  and  _667
REMARK  272  A    between atoms: _667  and  _668
REMARK  273  A    between atoms: _667  and  _670
REMARK  274  A    between atoms: _670  and  _671
REMARK  275  A    between atoms: _676  and  _678
REMARK  276  A    between atoms: _678  and  _679
REMARK  277  A    between atoms: _678  and  _681
REMARK  278  A    between atoms: _681  and  _682
REMARK  279  A    between atoms: _685  and  _687
REMARK  280  A    between atoms: _687  and  _688
REMARK  281  A    between atoms: _687  and  _690
REMARK  282  A    between atoms: _690  and  _691
REMARK  283  A    between atoms: _694  and  _696
REMARK  284  A    between atoms: _696  and  _697
REMARK  285  A    between atoms: _696  and  _699
REMARK  286  A    between atoms: _699  and  _700
REMARK  287  A    between atoms: _700  and  _701
REMARK  288  A    between atoms: _701  and  _702
REMARK  289  A    between atoms: _702  and  _703
REMARK  290  A    between atoms: _707  and  _709
REMARK  291  A    between atoms: _709  and  _710
REMARK  292  A    between atoms: _709  and  _712
REMARK  293  A    between atoms: _712  and  _713
REMARK  294  A    between atoms: _719  and  _721
REMARK  295  A    between atoms: _721  and  _722
REMARK  296  A    between atoms: _721  and  _724
REMARK  297  A    between atoms: _724  and  _725
REMARK  298  A    between atoms: _728  and  _730
REMARK  299  A    between atoms: _730  and  _731
REMARK  300  A    between atoms: _730  and  _733
REMARK  301  A    between atoms: _733  and  _734
REMARK  302  A    between atoms: _736  and  _738
REMARK  303  A    between atoms: _738  and  _739
REMARK  304  A    between atoms: _738  and  _741
REMARK  305  A    between atoms: _741  and  _742
REMARK  306  A    between atoms: _745  and  _747
REMARK  307  A    between atoms: _747  and  _748
REMARK  308  A    between atoms: _747  and  _750
REMARK  309  A    between atoms: _750  and  _751
REMARK  310  A    between atoms: _751  and  _752
REMARK  311  A    between atoms: _752  and  _753
REMARK  312  A    between atoms: _762  and  _764
REMARK  313  A    between atoms: _764  and  _765
REMARK  314  A    between atoms: _764  and  _767
REMARK  315  A    between atoms: _767  and  _768
REMARK  316  A    between atoms: _771  and  _773
REMARK  317  A    between atoms: _773  and  _774
REMARK  318  A    between atoms: _773  and  _776
REMARK  319  A    between atoms: _776  and  _777
REMARK  320  A    between atoms: _777  and  _778
REMARK  321  A    between atoms: _780  and  _782
REMARK  322  A    between atoms: _782  and  _783
REMARK  323  A    between atoms: _782  and  _785
REMARK  324  A    between atoms: _788  and  _790
REMARK  325  A    between atoms: _790  and  _791
REMARK  326  A    between atoms: _790  and  _793
REMARK  327  A    between atoms: _793  and  _794
REMARK                            x       y       z     vdW  Elec       q    Type
REMARK                         _______ _______ _______ _____ _____    ______ ____
ROOT
ATOM      1  CA  LEU A   1      99.201   8.220   4.858  0.00  0.00    +0.145 C 
ENDROOT
BRANCH   1   2
ATOM      2  C   LEU A   1     100.192   9.152   5.553  0.00  0.00    +0.238 C 
ATOM      3  N   GLY A   2      99.732  10.338   5.884  0.00  0.00    -0.297 N 
ATOM      4  H   GLY A   2      98.722  10.544   5.743  0.00  0.00    +0.150 HD
ATOM      5  O   LEU A   1     101.333   8.782   5.805  0.00  0.00    -0.274 OA
BRANCH   3   6
ATOM      6  CA  GLY A   2     100.587  11.366   6.439  0.00  0.00    +0.163 C 
BRANCH   6   7
ATOM      7  C   GLY A   2      99.871  12.254   7.436  0.00  0.00    +0.229 C 
ATOM      8  O   GLY A   2      98.679  12.131   7.706  0.00  0.00    -0.286 OA
ENDBRANCH   6   7
ENDBRANCH   3   6
ENDBRANCH   1   2
BRANCH   1   9
ATOM      9  N   LEU A   1      99.850   7.714   3.657  0.00  0.00    -0.238 NA
ATOM     10  H   LEU A   1      99.910   6.687   3.506  0.00  0.00    +0.142 HD
ENDBRANCH   1   9
BRANCH   1  11
ATOM     11  CB  LEU A   1      98.792   7.086   5.781  0.00  0.00    +0.026 C 
BRANCH  11  12
ATOM     12  CG  LEU A   1      98.323   7.495   7.178  0.00  0.00    +0.002 C 
ATOM     13  CD2 LEU A   1      98.160   6.268   8.067  0.00  0.00    +0.000 C 
ATOM     14  CD1 LEU A   1      97.037   8.267   7.094  0.00  0.00    +0.000 C 
ENDBRANCH  11  12
ENDBRANCH   1  11
TORSDOF 6
REMARK  Name = ../refined-set-2016/4omj/4omj_pocket.pdb
REMARK  327 active torsions:
REMARK  status: ('A' for Active; 'I' for Inactive)
REMARK    1  A    between atoms: _1  and  _3
REMARK    2  A    between atoms: _3  and  _4
REMARK    3  A    between atoms: _3  and  _6
REMARK    4  A    between atoms: _6  and  _7
REMARK    5  A    between atoms: _10  and  _12
REMARK    6  A    between atoms: _12  and  _13
REMARK    7  A    between atoms: _12  and  _15
REMARK    8  A    between atoms: _15  and  _16
REMARK    9  A    between atoms: _21  and  _22
REMARK   10  A    between atoms: _24  and  _26
REMARK   11  A    between atoms: _26  and  _27
REMARK   12  A    between atoms: _26  and  _29
REMARK   13  A    between atoms: _29  and  _30
REMARK   14  A    between atoms: _33  and  _35
REMARK   15  A    between atoms: _35  and  _36
REMARK   16  A    between atoms: _35  and  _38
REMARK   17  A    between atoms: _38  and  _39
REMARK   18  A    between atoms: _41  and  _43
REMARK   19  A    between atoms: _43  and  _44
REMARK   20  A    between atoms: _43  and  _46
REMARK   21  A    between atoms: _46  and  _47
REMARK   22  A    between atoms: _57  and  _59
REMARK   23  A    between atoms: _59  and  _60
REMARK   24  A    between atoms: _59  and  _62
REMARK   25  A    between atoms: _62  and  _63
REMARK   26  A    between atoms: _66  and  _68
REMARK   27  A    between atoms: _68  and  _69
REMARK   28  A    between atoms: _68  and  _71
REMARK   29  A    between atoms: _71  and  _72
REMARK   30  A    between atoms: _75  and  _77
REMARK   31  A    between atoms: _77  and  _78
REMARK   32  A    between atoms: _77  and  _80
REMARK   33  A    between atoms: _80  and  _81
REMARK   34  A    between atoms: _84  and  _86
REMARK   35  A    between atoms: _86  and  _87
REMARK   36  A    between atoms: _89  and  _91
REMARK   37  A    between atoms: _91  and  _92
REMARK   38  A    between atoms: _91  and  _94
REMARK   39  A    between atoms: _94  and  _95
REMARK   40  A    between atoms: _98  and  _100
REMARK   41  A    between atoms: _100  and  _101
REMARK   42  A    between atoms: _100  and  _103
REMARK   43  A    between atoms: _103  and  _104
REMARK   44  A    between atoms: _107  and  _109
REMARK   45  A    between atoms: _109  and  _110
REMARK   46  A    between atoms: _113  and  _115
REMARK   47  A    between atoms: _115  and  _116
REMARK   48  A    between atoms: _115  and  _118
REMARK   49  A    between atoms: _118  and  _119
REMARK   50  A    between atoms: _119  and  _120
REMARK   51  A    between atoms: _120  and  _121
REMARK   52  A    between atoms: _121  and  _122
REMARK   53  A    between atoms: _126  and  _128
REMARK   54  A    between atoms: _128  and  _129
REMARK   55  A    between atoms: _131  and  _133
REMARK   56  A    between atoms: _133  and  _134
REMARK   57  A    between atoms: _133  and  _136
REMARK   58  A    between atoms: _136  and  _137
REMARK   59  A    between atoms: _140  and  _142
REMARK   60  A    between atoms: _142  and  _143
REMARK   61  A    between atoms: _142  and  _145
REMARK   62  A    between atoms: _145  and  _146
REMARK   63  A    between atoms: _149  and  _151
REMARK   64  A    between atoms: _151  and  _152
REMARK   65  A    between atoms: _151  and  _154
REMARK   66  A    between atoms: _154  and  _155
REMARK   67  A    between atoms: _161  and  _163
REMARK   68  A    between atoms: _163  and  _164
REMARK   69  A    between atoms: _167  and  _169
REMARK   70  A    between atoms: _169  and  _170
REMARK   71  A    between atoms: _169  and  _172
REMARK   72  A    between atoms: _172  and  _173
REMARK   73  A    between atoms: _175  and  _177
REMARK   74  A    between atoms: _177  and  _178
REMARK   75  A    between atoms: _177  and  _180
REMARK   76  A    between atoms: _180  and  _181
REMARK   77  A    between atoms: _181  and  _182
REMARK   78  A    between atoms: _182  and  _183
REMARK   79  A    between atoms: _183  and  _184
REMARK   80  A    between atoms: _188  and  _190
REMARK   81  A    between atoms: _190  and  _191
REMARK   82  A    between atoms: _190  and  _193
REMARK   83  A    between atoms: _193  and  _194
REMARK   84  A    between atoms: _194  and  _195
REMARK   85  A    between atoms: _200  and  _202
REMARK   86  A    between atoms: _202  and  _203
REMARK   87  A    between atoms: _202  and  _205
REMARK   88  A    between atoms: _205  and  _206
REMARK   89  A    between atoms: _209  and  _211
REMARK   90  A    between atoms: _211  and  _212
REMARK   91  A    between atoms: _211  and  _214
REMARK   92  A    between atoms: _214  and  _215
REMARK   93  A    between atoms: _218  and  _220
REMARK   94  A    between atoms: _220  and  _221
REMARK   95  A    between atoms: _220  and  _223
REMARK   96  A    between atoms: _223  and  _224
REMARK   97  A    between atoms: _227  and  _229
REMARK   98  A    between atoms: _229  and  _230
REMARK   99  A    between atoms: _229  and  _232
REMARK  100  A    between atoms: _232  and  _233
REMARK  101  A    between atoms: _233  and  _234
REMARK  102  A    between atoms: _234  and  _235
REMARK  103  A    between atoms: _244  and  _246
REMARK  104  A    between atoms: _246  and  _247
REMARK  105  A    between atoms: _246  and  _249
REMARK  106  A    between atoms: _249  and  _250
REMARK  107  A    between atoms: _253  and  _255
REMARK  108  A    between atoms: _255  and  _256
REMARK  109  A    between atoms: _255  and  _258
REMARK  110  A    between atoms: _258  and  _259
REMARK  111  A    between atoms: _259  and  _260
REMARK  112  A    between atoms: _260  and  _261
REMARK  113  A    between atoms: _261  and  _262
REMARK  114  A    between atoms: _266  and  _268
REMARK  115  A    between atoms: _268  and  _269
REMARK  116  A    between atoms: _268  and  _271
REMARK  117  A    between atoms: _271  and  _272
REMARK  118  A    between atoms: _272  and  _273
REMARK  119  A    between atoms: _275  and  _277
REMARK  120  A    between atoms: _277  and  _278
REMARK  121  A    between atoms: _277  and  _280
REMARK  122  A    between atoms: _280  and  _281
REMARK  123  A    between atoms: _281  and  _282
REMARK  124  A    between atoms: _285  and  _287
REMARK  125  A    between atoms: _287  and  _288
REMARK  126  A    between atoms: _287  and  _290
REMARK  127  A    between atoms: _292  and  _294
REMARK  128  A    between atoms: _294  and  _295
REMARK  129  A    between atoms: _294  and  _297
REMARK  130  A    between atoms: _297  and  _298
REMARK  131  A    between atoms: _301  and  _303
REMARK  132  A    between atoms: _303  and  _304
REMARK  133  A    between atoms: _303  and  _306
REMARK  134  A    between atoms: _306  and  _307
REMARK  135  A    between atoms: _310  and  _312
REMARK  136  A    between atoms: _312  and  _313
REMARK  137  A    between atoms: _312  and  _315
REMARK  138  A    between atoms: _315  and  _316
REMARK  139  A    between atoms: _319  and  _321
REMARK  140  A    between atoms: _321  and  _322
REMARK  141  A    between atoms: _321  and  _324
REMARK  142  A    between atoms: _324  and  _325
REMARK  143  A    between atoms: _330  and  _331
REMARK  144  A    between atoms: _333  and  _335
REMARK  145  A    between atoms: _335  and  _336
REMARK  146  A    between atoms: _335  and  _338
REMARK  147  A    between atoms: _338  and  _339
REMARK  148  A    between atoms: _342  and  _344
REMARK  149  A    between atoms: _344  and  _345
REMARK  150  A    between atoms: _344  and  _347
REMARK  151  A    between atoms: _349  and  _351
REMARK  152  A    between atoms: _351  and  _352
REMARK  153  A    between atoms: _351  and  _354
REMARK  154  A    between atoms: _354  and  _355
REMARK  155  A    between atoms: _358  and  _360
REMARK  156  A    between atoms: _360  and  _361
REMARK  157  A    between atoms: _363  and  _365
REMARK  158  A    between atoms: _365  and  _366
REMARK  159  A    between atoms: _365  and  _368
REMARK  160  A    between atoms: _368  and  _369
REMARK  161  A    between atoms: _369  and  _370
REMARK  162  A    between atoms: _370  and  _371
REMARK  163  A    between atoms: _371  and  _372
REMARK  164  A    between atoms: _376  and  _378
REMARK  165  A    between atoms: _378  and  _379
REMARK  166  A    between atoms: _378  and  _381
REMARK  167  A    between atoms: _381  and  _382
REMARK  168  A    between atoms: _387  and  _389
REMARK  169  A    between atoms: _389  and  _390
REMARK  170  A    between atoms: _389  and  _392
REMARK  171  A    between atoms: _392  and  _393
REMARK  172  A    between atoms: _396  and  _398
REMARK  173  A    between atoms: _398  and  _399
REMARK  174  A    between atoms: _398  and  _401
REMARK  175  A    between atoms: _401  and  _402
REMARK  176  A    between atoms: _412  and  _414
REMARK  177  A    between atoms: _414  and  _415
REMARK  178  A    between atoms: _414  and  _417
REMARK  179  A    between atoms: _417  and  _418
REMARK  180  A    between atoms: _418  and  _419
REMARK  181  A    between atoms: _419  and  _420
REMARK  182  A    between atoms: _420  and  _421
REMARK  183  A    between atoms: _426  and  _427
REMARK  184  A    between atoms: _432  and  _434
REMARK  185  A    between atoms: _434  and  _435
REMARK  186  A    between atoms: _438  and  _440
REMARK  187  A    between atoms: _440  and  _441
REMARK  188  A    between atoms: _440  and  _443
REMARK  189  A    between atoms: _446  and  _448
REMARK  190  A    between atoms: _448  and  _449
REMARK  191  A    between atoms: _448  and  _451
REMARK  192  A    between atoms: _451  and  _452
REMARK  193  A    between atoms: _452  and  _453
REMARK  194  A    between atoms: _456  and  _458
REMARK  195  A    between atoms: _458  and  _459
REMARK  196  A    between atoms: _462  and  _464
REMARK  197  A    between atoms: _464  and  _465
REMARK  198  A    between atoms: _464  and  _467
REMARK  199  A    between atoms: _467  and  _468
REMARK  200  A    between atoms: _473  and  _474
REMARK  201  A    between atoms: _476  and  _478
REMARK  202  A    between atoms: _478  and  _479
REMARK  203  A    between atoms: _481  and  _483
REMARK  204  A    between atoms: _483  and  _484
REMARK  205  A    between atoms: _483  and  _486
REMARK  206  A    between atoms: _486  and  _487
REMARK  207  A    between atoms: _487  and  _488
REMARK  208  A    between atoms: _491  and  _493
REMARK  209  A    between atoms: _493  and  _494
REMARK  210  A    between atoms: _493  and  _496
REMARK  211  A    between atoms: _496  and  _497
REMARK  212  A    between atoms: _503  and  _505
REMARK  213  A    between atoms: _505  and  _506
REMARK  214  A    between atoms: _505  and  _508
REMARK  215  A    between atoms: _508  and  _509
REMARK  216  A    between atoms: _512  and  _514
REMARK  217  A    between atoms: _514  and  _515
REMARK  218  A    between atoms: _514  and  _517
REMARK  219  A    between atoms: _519  and  _521
REMARK  220  A    between atoms: _521  and  _522
REMARK  221  A    between atoms: _521  and  _524
REMARK  222  A    between atoms: _524  and  _525
REMARK  223  A    between atoms: _531  and  _533
REMARK  224  A    between atoms: _533  and  _534
REMARK  225  A    between atoms: _533  and  _536
REMARK  226  A    between atoms: _536  and  _537
REMARK  227  A    between atoms: _537  and  _538
REMARK  228  A    between atoms: _541  and  _543
REMARK  229  A    between atoms: _543  and  _544
REMARK  230  A    between atoms: _543  and  _546
REMARK  231  A    between atoms: _546  and  _547
REMARK  232  A    between atoms: _550  and  _552
REMARK  233  A    between atoms: _552  and  _553
REMARK  234  A    between atoms: _552  and  _555
REMARK  235  A    between atoms: _555  and  _556
REMARK  236  A    between atoms: _556  and  _557
REMARK  237  A    between atoms: _557  and  _558
REMARK  238  A    between atoms: _567  and  _569
REMARK  239  A    between atoms: _569  and  _570
REMARK  240  A    between atoms: _569  and  _572
REMARK  241  A    between atoms: _572  and  _573
REMARK  242  A    between atoms: _576  and  _578
REMARK  243  A    between atoms: _578  and  _579
REMARK  244  A    between atoms: _578  and  _581
REMARK  245  A    between atoms: _581  and  _582
REMARK  246  A    between atoms: _588  and  _590
REMARK  247  A    between atoms: _590  and  _591
REMARK  248  A    between atoms: _590  and  _593
REMARK  249  A    between atoms: _596  and  _598
REMARK  250  A    between atoms: _598  and  _599
REMARK  251  A    between atoms: _603  and  _604
REMARK  252  A    between atoms: _609  and  _611
REMARK  253  A    between atoms: _611  and  _612
REMARK  254  A    between atoms: _611  and  _614
REMARK  255  A    between atoms: _614  and  _615
REMARK  256  A    between atoms: _618  and  _620
REMARK  257  A    between atoms: _620  and  _621
REMARK  258  A    between atoms: _620  and  _623
REMARK  259  A    between atoms: _623  and  _624
REMARK  260  A    between atoms: _631  and  _632
REMARK  261  A    between atoms: _637  and  _639
REMARK  262  A    between atoms: _639  and  _640
REMARK  263  A    between atoms: _639  and  _642
REMARK  264  A    between atoms: _645  and  _647
REMARK  265  A    between atoms: _647  and  _648
REMARK  266  A    between atoms: _651  and  _653
REMARK  267  A    between atoms: _653  and  _654
REMARK  268  A    between atoms: _653  and  _656
REMARK  269  A    between atoms: _656  and  _657
REMARK  270  A    between atoms: _662  and  _663
REMARK  271  A    between atoms: _665  and  _667
REMARK  272  A    between atoms: _667  and  _668
REMARK  273  A    between atoms: _667  and  _670
REMARK  274  A    between atoms: _670  and  _671
REMARK  275  A    between atoms: _676  and  _678
REMARK  276  A    between atoms: _678  and  _679
REMARK  277  A    between atoms: _678  and  _681
REMARK  278  A    between atoms: _681  and  _682
REMARK  279  A    between atoms: _685  and  _687
REMARK  280  A    between atoms: _687  and  _688
REMARK  281  A    between atoms: _687  and  _690
REMARK  282  A    between atoms: _690  and  _691
REMARK  283  A    between atoms: _694  and  _696
REMARK  284  A    between atoms: _696  and  _697
REMARK  285  A    between atoms: _696  and  _699
REMARK  286  A    between atoms: _699  and  _700
REMARK  287  A    between atoms: _700  and  _701
REMARK  288  A    between atoms: _701  and  _702
REMARK  289  A    between atoms: _702  and  _703
REMARK  290  A    between atoms: _707  and  _709
REMARK  291  A    between atoms: _709  and  _710
REMARK  292  A    between atoms: _709  and  _712
REMARK  293  A    between atoms: _712  and  _713
REMARK  294  A    between atoms: _719  and  _721
REMARK  295  A    between atoms: _721  and  _722
REMARK  296  A    between atoms: _721  and  _724
REMARK  297  A    between atoms: _724  and  _725
REMARK  298  A    between atoms: _728  and  _730
REMARK  299  A    between atoms: _730  and  _731
REMARK  300  A    between atoms: _730  and  _733
REMARK  301  A    between atoms: _733  and  _734
REMARK  302  A    between atoms: _736  and  _738
REMARK  303  A    between atoms: _738  and  _739
REMARK  304  A    between atoms: _738  and  _741
REMARK  305  A    between atoms: _741  and  _742
REMARK  306  A    between atoms: _745  and  _747
REMARK  307  A    between atoms: _747  and  _748
REMARK  308  A    between atoms: _747  and  _750
REMARK  309  A    between atoms: _750  and  _751
REMARK  310  A    between atoms: _751  and  _752
REMARK  311  A    between atoms: _752  and  _753
REMARK  312  A    between atoms: _762  and  _764
REMARK  313  A    between atoms: _764  and  _765
REMARK  314  A    between atoms: _764  and  _767
REMARK  315  A    between atoms: _767  and  _768
REMARK  316  A    between atoms: _771  and  _773
REMARK  317  A    between atoms: _773  and  _774
REMARK  318  A    between atoms: _773  and  _776
REMARK  319  A    between atoms: _776  and  _777
REMARK  320  A    between atoms: _777  and  _778
REMARK  321  A    between atoms: _780  and  _782
REMARK  322  A    between atoms: _782  and  _783
REMARK  323  A    between atoms: _782  and  _785
REMARK  324  A    between atoms: _788  and  _790
REMARK  325  A    between atoms: _790  and  _791
REMARK  326  A    between atoms: _790  and  _793
REMARK  327  A    between atoms: _793  and  _794
REMARK                            x       y       z     vdW  Elec       q    Type
REMARK                         _______ _______ _______ _____ _____    ______ ____
ROOT
ATOM      1  CA  VAL A   8      89.349  12.937  11.474  0.00  0.00    +0.149 C 
ENDROOT
BRANCH   1   2
ATOM      2  C   VAL A   8      87.925  12.937  11.999  0.00  0.00    +0.241 C 
ATOM      3  N   GLU A   9      87.430  14.110  12.360  0.00  0.00    -0.297 N 
ATOM      4  H   GLU A   9      88.014  14.966  12.271  0.00  0.00    +0.150 HD
ATOM      5  O   VAL A   8      87.260  11.887  12.081  0.00  0.00    -0.273 OA
BRANCH   3   6
ATOM      6  CA  GLU A   9      86.077  14.211  12.879  0.00  0.00    +0.149 C 
BRANCH   6   7
ATOM      7  C   GLU A   9      85.041  13.833  11.822  0.00  0.00    +0.241 C 
ATOM      8  O   GLU A   9      84.085  13.094  12.135  0.00  0.00    -0.273 OA
ATOM      9  N   ALA A  10      85.225  14.305  10.596  0.00  0.00    -0.297 N 
ATOM     10  H   ALA A  10      86.040  14.922  10.402  0.00  0.00    +0.150 HD
BRANCH   9  11
ATOM     11  CA  ALA A  10      84.300  13.972   9.513  0.00  0.00    +0.149 C 
ATOM     12  CB  ALA A  10      84.635  14.746   8.275  0.00  0.00    +0.031 C 
BRANCH  11  13
ATOM     13  C   ALA A  10      84.344  12.464   9.227  0.00  0.00    +0.241 C 
ATOM     14  N   TYR A  11      85.532  11.886   9.262  0.00  0.00    -0.297 N 
ATOM     15  H   TYR A  11      86.371  12.449   9.508  0.00  0.00    +0.150 HD
ATOM     16  O   ALA A  10      83.300  11.836   9.007  0.00  0.00    -0.273 OA
BRANCH  14  17
ATOM     17  CA  TYR A  11      85.677  10.469   8.960  0.00  0.00    +0.153 C 
BRANCH  17  18
ATOM     18  C   TYR A  11      85.007   9.663  10.067  0.00  0.00    +0.241 C 
ATOM     19  N   GLY A  12      85.144  10.116  11.301  0.00  0.00    -0.295 N 
ATOM     20  H   GLY A  12      85.730  10.956  11.480  0.00  0.00    +0.150 HD
ATOM     21  O   TYR A  11      84.365   8.653   9.820  0.00  0.00    -0.273 OA
BRANCH  19  22
ATOM     22  CA  GLY A  12      84.480   9.446  12.412  0.00  0.00    +0.176 C 
BRANCH  22  23
ATOM     23  C   GLY A  12      82.971   9.465  12.234  0.00  0.00    +0.243 C 
ATOM     24  O   GLY A  12      82.305   8.510  12.598  0.00  0.00    -0.273 OA
ATOM     25  N   GLU A  13      82.425  10.541  11.684  0.00  0.00    -0.297 N 
ATOM     26  H   GLU A  13      83.023  11.354  11.433  0.00  0.00    +0.150 HD
BRANCH  25  27
ATOM     27  CA  GLU A  13      80.984  10.591  11.428  0.00  0.00    +0.149 C 
BRANCH  27  28
ATOM     28  C   GLU A  13      80.601   9.526  10.405  0.00  0.00    +0.241 C 
ATOM     29  O   GLU A  13      79.565   8.876  10.552  0.00  0.00    -0.273 OA
ATOM     30  N   PHE A  14      81.417   9.351   9.375  0.00  0.00    -0.297 N 
ATOM     31  H   PHE A  14      82.241   9.976   9.261  0.00  0.00    +0.150 HD
BRANCH  30  32
ATOM     32  CA  PHE A  14      81.175   8.297   8.403  0.00  0.00    +0.153 C 
BRANCH  32  33
ATOM     33  C   PHE A  14      81.234   6.934   9.087  0.00  0.00    +0.241 C 
ATOM     34  N   LEU A  15      82.264   6.716   9.900  0.00  0.00    -0.297 N 
ATOM     35  H   LEU A  15      82.957   7.470  10.080  0.00  0.00    +0.150 HD
ATOM     36  O   PHE A  14      80.369   6.080   8.875  0.00  0.00    -0.273 OA
BRANCH  34  37
ATOM     37  CA  LEU A  15      82.415   5.410  10.538  0.00  0.00    +0.149 C 
BRANCH  37  38
ATOM     38  C   LEU A  15      81.245   5.072  11.449  0.00  0.00    +0.241 C 
ATOM     39  N   CYS A  16      80.764   6.057  12.202  0.00  0.00    -0.297 N 
ATOM     40  H   CYS A  16      81.215   6.994  12.179  0.00  0.00    +0.150 HD
ATOM     41  O   LEU A  15      80.770   3.930  11.452  0.00  0.00    -0.273 OA
BRANCH  39  42
ATOM     42  CA  CYS A  16      79.609   5.829  13.059  0.00  0.00    +0.149 C 
BRANCH  42  43
ATOM     43  C   CYS A  16      78.388   5.496  12.218  0.00  0.00    +0.228 C 
ATOM     44  O   CYS A  16      77.627   4.597  12.577  0.00  0.00    -0.286 OA
ENDBRANCH  42  43
BRANCH  42  45
ATOM     45  CB  CYS A  16      79.337   7.049  13.901  0.00  0.00    +0.096 C 
ATOM     46  SG  CYS A  16      80.532   7.256  15.240  0.00  0.00    -0.080 S 
ENDBRANCH  42  45
ENDBRANCH  39  42
ENDBRANCH  37  38
BRANCH  37  47
ATOM     47  CB  LEU A  15      83.740   5.304  11.280  0.00  0.00    +0.029 C 
BRANCH  47  48
ATOM     48  CG  LEU A  15      84.984   5.410  10.421  0.00  0.00    +0.002 C 
ATOM     49  CD2 LEU A  15      86.238   5.528  11.309  0.00  0.00    +0.000 C 
ATOM     50  CD1 LEU A  15      85.111   4.194   9.530  0.00  0.00    +0.000 C 
ENDBRANCH  47  48
ENDBRANCH  37  47
ENDBRANCH  34  37
ENDBRANCH  32  33
BRANCH  32  51
ATOM     51  CB  PHE A  14      82.193   8.350   7.279  0.00  0.00    +0.055 C 
BRANCH  51  52
ATOM     52  CG  PHE A  14      82.417   7.028   6.622  0.00  0.00    -0.020 A 
ATOM     53  CD2 PHE A  14      83.656   6.422   6.684  0.00  0.00    -0.004 A 
ATOM     54  CE2 PHE A  14      83.868   5.178   6.087  0.00  0.00    -0.000 A 
ATOM     55  CZ  PHE A  14      82.833   4.537   5.455  0.00  0.00    -0.000 A 
ATOM     56  CE1 PHE A  14      81.587   5.122   5.387  0.00  0.00    -0.000 A 
ATOM     57  CD1 PHE A  14      81.377   6.373   5.976  0.00  0.00    -0.004 A 
ENDBRANCH  51  52
ENDBRANCH  32  51
ENDBRANCH  30  32
ENDBRANCH  27  28
BRANCH  27  58
ATOM     58  CB  GLU A  13      80.531  11.971  10.959  0.00  0.00    +0.041 C 
BRANCH  58  59
ATOM     59  CG  GLU A  13      80.654  13.004  12.048  0.00  0.00    +0.116 C 
BRANCH  59  60
ATOM     60  CD  GLU A  13      79.937  14.298  11.719  0.00  0.00    +0.365 C 
ATOM     61  OE2 GLU A  13      80.405  15.364  12.182  0.00  0.00    -0.246 OA
ATOM     62  OE1 GLU A  13      78.886  14.243  11.041  0.00  0.00    -0.246 OA
ENDBRANCH  59  60
ENDBRANCH  58  59
ENDBRANCH  27  58
ENDBRANCH  25  27
ENDBRANCH  22  23
ENDBRANCH  19  22
ENDBRANCH  17  18
BRANCH  17  63
ATOM     63  CB  TYR A  11      87.153  10.108   8.806  0.00  0.00    +0.055 C 
BRANCH  63  64
ATOM     64  CG  TYR A  11      87.399   8.770   8.139  0.00  0.00    -0.020 A 
ATOM     65  CD2 TYR A  11      88.068   7.780   8.798  0.00  0.00    -0.001 A 
ATOM     66  CE2 TYR A  11      88.316   6.556   8.190  0.00  0.00    +0.036 A 
ATOM     67  CZ  TYR A  11      87.883   6.349   6.918  0.00  0.00    +0.134 A 
ATOM     68  CE1 TYR A  11      87.224   7.332   6.222  0.00  0.00    +0.036 A 
ATOM     69  CD1 TYR A  11      86.989   8.548   6.838  0.00  0.00    -0.001 A 
BRANCH  67  70
ATOM     70  OH  TYR A  11      88.144   5.136   6.303  0.00  0.00    -0.506 OA
ATOM     71  HH  TYR A  11      89.123   4.995   6.256  0.00  0.00    +0.292 HD
ENDBRANCH  67  70
ENDBRANCH  63  64
ENDBRANCH  17  63
ENDBRANCH  14  17
ENDBRANCH  11  13
ENDBRANCH   9  11
ENDBRANCH   6   7
BRANCH   6  72
ATOM     72  CB  GLU A   9      85.828  15.597  13.479  0.00  0.00    +0.041 C 
BRANCH  72  73
ATOM     73  CG  GLU A   9      86.660  15.752  14.756  0.00  0.00    +0.116 C 
BRANCH  73  74
ATOM     74  CD  GLU A   9      86.635  17.138  15.381  0.00  0.00    +0.365 C 
ATOM     75  OE2 GLU A   9      87.142  17.258  16.522  0.00  0.00    -0.246 OA
ATOM     76  OE1 GLU A   9      86.148  18.094  14.742  0.00  0.00    -0.246 OA
ENDBRANCH  73  74
ENDBRANCH  72  73
ENDBRANCH   6  72
ENDBRANCH   3   6
ENDBRANCH   1   2
BRANCH   1  78
ATOM     77  C   ALA A   7      88.845  14.217   9.469  0.00  0.00    +0.241 C 
ATOM     78  N   VAL A   8      89.554  14.078  10.587  0.00  0.00    -0.297 N 
ATOM     79  H   VAL A   8      90.266  14.795  10.833  0.00  0.00    +0.150 HD
ATOM     80  O   ALA A   7      88.010  13.371   9.120  0.00  0.00    -0.273 OA
BRANCH  77  81
ATOM     81  CA  ALA A   7      89.125  15.443   8.617  0.00  0.00    +0.149 C 
ATOM     82  CB  ALA A   7      90.395  15.280   7.824  0.00  0.00    +0.031 C 
BRANCH  81  85
ATOM     83  C   PRO A   6      88.089  17.109  10.039  0.00  0.00    +0.241 C 
ATOM     84  O   PRO A   6      86.956  16.613   9.889  0.00  0.00    -0.273 OA
ATOM     85  N   ALA A   7      89.190  16.643   9.466  0.00  0.00    -0.297 N 
ATOM     86  H   ALA A   7      90.099  17.125   9.616  0.00  0.00    +0.150 HD
BRANCH  83  93
ATOM     87  C   LYS A   5      89.891  17.380  12.430  0.00  0.00    +0.244 C 
ATOM     88  O   LYS A   5      89.139  16.434  12.661  0.00  0.00    -0.273 OA
ATOM     89  N   PRO A   6      89.551  18.377  11.603  0.00  0.00    -0.272 N 
ATOM     90  CD  PRO A   6      90.197  19.690  11.422  0.00  0.00    +0.094 C 
ATOM     91  CG  PRO A   6      89.062  20.560  10.956  0.00  0.00    +0.024 C 
ATOM     92  CB  PRO A   6      88.225  19.620  10.110  0.00  0.00    +0.031 C 
ATOM     93  CA  PRO A   6      88.244  18.336  10.933  0.00  0.00    +0.152 C 
BRANCH  87  94
ATOM     94  CA  LYS A   5      91.272  17.422  13.123  0.00  0.00    +0.149 C 
BRANCH  94  96
ATOM     95  C   TRP A   4      92.592  17.099  11.121  0.00  0.00    +0.241 C 
ATOM     96  N   LYS A   5      92.384  17.762  12.255  0.00  0.00    -0.297 N 
ATOM     97  H   LYS A   5      93.027  18.534  12.523  0.00  0.00    +0.150 HD
ATOM     98  O   TRP A   4      91.771  16.290  10.662  0.00  0.00    -0.273 OA
BRANCH  95  99
ATOM     99  CA  TRP A   4      93.930  17.331  10.428  0.00  0.00    +0.153 C 
BRANCH  99 102
ATOM    100  C   LEU A   3      94.704  15.123  11.130  0.00  0.00    +0.241 C 
ATOM    101  O   LEU A   3      94.493  15.332  12.319  0.00  0.00    -0.273 OA
ATOM    102  N   TRP A   4      94.577  16.057  10.201  0.00  0.00    -0.297 N 
ATOM    103  H   TRP A   4      94.964  15.864   9.255  0.00  0.00    +0.150 HD
BRANCH 100 104
ATOM    104  CA  LEU A   3      95.094  13.730  10.626  0.00  0.00    +0.149 C 
BRANCH 104 106
ATOM    105  C   HIS A   2      94.695  13.326   8.258  0.00  0.00    +0.241 C 
ATOM    106  N   LEU A   3      95.525  13.683   9.237  0.00  0.00    -0.297 N 
ATOM    107  H   LEU A   3      96.506  13.935   9.002  0.00  0.00    +0.150 HD
ATOM    108  O   HIS A   2      93.522  13.032   8.460  0.00  0.00    -0.273 OA
BRANCH 105 109
ATOM    109  CA  HIS A   2      95.282  13.278   6.866  0.00  0.00    +0.155 C 
BRANCH 109 111
ATOM    110  C   LYS A   1      96.588  15.315   6.688  0.00  0.00    +0.238 C 
ATOM    111  N   HIS A   2      96.560  13.984   6.755  0.00  0.00    -0.297 N 
ATOM    112  H   HIS A   2      97.449  13.445   6.728  0.00  0.00    +0.150 HD
ATOM    113  O   LYS A   1      95.568  15.995   6.755  0.00  0.00    -0.274 OA
BRANCH 110 114
ATOM    114  CA  LYS A   1      97.945  15.992   6.566  0.00  0.00    +0.145 C 
BRANCH 114 115
ATOM    115  N   LYS A   1      98.984  15.193   7.182  0.00  0.00    -0.238 NA
ATOM    116  H   LYS A   1      99.779  14.847   6.607  0.00  0.00    +0.142 HD
ENDBRANCH 114 115
BRANCH 114 117
ATOM    117  CB  LYS A   1      98.274  16.296   5.104  0.00  0.00    +0.026 C 
BRANCH 117 118
ATOM    118  CG  LYS A   1      98.424  15.068   4.235  0.00  0.00    -0.000 C 
BRANCH 118 119
ATOM    119  CD  LYS A   1      98.959  15.417   2.850  0.00  0.00    -0.024 C 
BRANCH 119 120
ATOM    120  CE  LYS A   1      99.237  14.185   2.033  0.00  0.00    -0.086 C 
BRANCH 120 121
ATOM    121  NZ  LYS A   1      99.703  14.587   0.661  0.00  0.00    +0.380 N 
ATOM    122  HZ1 LYS A   1     100.572  15.152   0.743  0.00  0.00    -0.089 HD
ATOM    123  HZ2 LYS A   1      98.963  15.152   0.197  0.00  0.00    -0.089 HD
ATOM    124  HZ3 LYS A   1      99.895  13.734   0.098  0.00  0.00    -0.089 HD
ENDBRANCH 120 121
ENDBRANCH 119 120
ENDBRANCH 118 119
ENDBRANCH 117 118
ENDBRANCH 114 117
ENDBRANCH 110 114
ENDBRANCH 109 111
BRANCH 109 125
ATOM    125  CB  HIS A   2      95.441  11.829   6.433  0.00  0.00    +0.076 C 
BRANCH 125 126
ATOM    126  CG  HIS A   2      95.855  11.685   5.013  0.00  0.00    +0.082 A 
ATOM    127  ND1 HIS A   2      97.129  11.329   4.645  0.00  0.00    -0.227 NA
ATOM    128  CE1 HIS A   2      97.224  11.310   3.325  0.00  0.00    +0.199 A 
ATOM    129  NE2 HIS A   2      96.054  11.661   2.826  0.00  0.00    -0.221 NA
ATOM    130  CD2 HIS A   2      95.181  11.906   3.860  0.00  0.00    +0.115 A 
ENDBRANCH 125 126
ENDBRANCH 109 125
ENDBRANCH 105 109
ENDBRANCH 104 106
BRANCH 104 131
ATOM    131  CB  LEU A   3      96.146  13.099  11.541  0.00  0.00    +0.029 C 
BRANCH 131 132
ATOM    132  CG  LEU A   3      96.597  11.718  11.082  0.00  0.00    +0.002 C 
ATOM    133  CD2 LEU A   3      97.620  11.135  12.085  0.00  0.00    +0.000 C 
ATOM    134  CD1 LEU A   3      95.412  10.753  10.899  0.00  0.00    +0.000 C 
ENDBRANCH 131 132
ENDBRANCH 104 131
ENDBRANCH 100 104
ENDBRANCH  99 102
BRANCH  99 135
ATOM    135  CB  TRP A   4      93.778  18.002   9.058  0.00  0.00    +0.057 C 
BRANCH 135 136
ATOM    136  CG  TRP A   4      93.129  19.349   9.047  0.00  0.00    -0.002 A 
ATOM    137  CD1 TRP A   4      93.499  20.459   9.766  0.00  0.00    +0.068 A 
ATOM    138  NE1 TRP A   4      92.665  21.515   9.467  0.00  0.00    -0.352 N 
ATOM    139  HE1 TRP A   4      92.729  22.470   9.874  0.00  0.00    +0.166 HD
ATOM    140  CE2 TRP A   4      91.738  21.102   8.546  0.00  0.00    +0.056 A 
ATOM    141  CZ2 TRP A   4      90.695  21.803   7.948  0.00  0.00    +0.017 A 
ATOM    142  CH2 TRP A   4      89.925  21.125   7.037  0.00  0.00    +0.001 A 
ATOM    143  CZ3 TRP A   4      90.162  19.783   6.736  0.00  0.00    +0.000 A 
ATOM    144  CE3 TRP A   4      91.199  19.092   7.317  0.00  0.00    +0.001 A 
ATOM    145  CD2 TRP A   4      92.004  19.751   8.249  0.00  0.00    +0.013 A 
ENDBRANCH 135 136
ENDBRANCH  99 135
ENDBRANCH  95  99
ENDBRANCH  94  96
BRANCH  94 146
ATOM    146  CB  LYS A   5      91.258  18.321  14.380  0.00  0.00    +0.029 C 
BRANCH 146 147
ATOM    147  CG  LYS A   5      90.185  17.929  15.365  0.00  0.00    +0.000 C 
BRANCH 147 148
ATOM    148  CD  LYS A   5      90.598  18.251  16.810  0.00  0.00    -0.024 C 
BRANCH 148 149
ATOM    149  CE  LYS A   5      90.817  19.713  17.031  0.00  0.00    -0.086 C 
BRANCH 149 150
ATOM    150  NZ  LYS A   5      90.937  19.986  18.506  0.00  0.00    +0.380 N 
ATOM    151  HZ1 LYS A   5      90.062  19.690  18.984  0.00  0.00    -0.089 HD
ATOM    152  HZ2 LYS A   5      91.742  19.452  18.892  0.00  0.00    -0.089 HD
ATOM    153  HZ3 LYS A   5      91.089  21.004  18.658  0.00  0.00    -0.089 HD
ENDBRANCH 149 150
ENDBRANCH 148 149
ENDBRANCH 147 148
ENDBRANCH 146 147
ENDBRANCH  94 146
ENDBRANCH  87  94
ENDBRANCH  83  93
ENDBRANCH  81  85
ENDBRANCH  77  81
ENDBRANCH   1  78
BRANCH   1 154
ATOM    154  CB  VAL A   8      90.359  12.963  12.637  0.00  0.00    +0.027 C 
ATOM    155  CG2 VAL A   8      90.058  11.846  13.670  0.00  0.00    +0.002 C 
ATOM    156  CG1 VAL A   8      91.766  12.857  12.103  0.00  0.00    +0.002 C 
ENDBRANCH   1 154
TORSDOF 62
REMARK  Name = ../refined-set-2016/4omj/4omj_pocket.pdb
REMARK  327 active torsions:
REMARK  status: ('A' for Active; 'I' for Inactive)
REMARK    1  A    between atoms: _1  and  _3
REMARK    2  A    between atoms: _3  and  _4
REMARK    3  A    between atoms: _3  and  _6
REMARK    4  A    between atoms: _6  and  _7
REMARK    5  A    between atoms: _10  and  _12
REMARK    6  A    between atoms: _12  and  _13
REMARK    7  A    between atoms: _12  and  _15
REMARK    8  A    between atoms: _15  and  _16
REMARK    9  A    between atoms: _21  and  _22
REMARK   10  A    between atoms: _24  and  _26
REMARK   11  A    between atoms: _26  and  _27
REMARK   12  A    between atoms: _26  and  _29
REMARK   13  A    between atoms: _29  and  _30
REMARK   14  A    between atoms: _33  and  _35
REMARK   15  A    between atoms: _35  and  _36
REMARK   16  A    between atoms: _35  and  _38
REMARK   17  A    between atoms: _38  and  _39
REMARK   18  A    between atoms: _41  and  _43
REMARK   19  A    between atoms: _43  and  _44
REMARK   20  A    between atoms: _43  and  _46
REMARK   21  A    between atoms: _46  and  _47
REMARK   22  A    between atoms: _57  and  _59
REMARK   23  A    between atoms: _59  and  _60
REMARK   24  A    between atoms: _59  and  _62
REMARK   25  A    between atoms: _62  and  _63
REMARK   26  A    between atoms: _66  and  _68
REMARK   27  A    between atoms: _68  and  _69
REMARK   28  A    between atoms: _68  and  _71
REMARK   29  A    between atoms: _71  and  _72
REMARK   30  A    between atoms: _75  and  _77
REMARK   31  A    between atoms: _77  and  _78
REMARK   32  A    between atoms: _77  and  _80
REMARK   33  A    between atoms: _80  and  _81
REMARK   34  A    between atoms: _84  and  _86
REMARK   35  A    between atoms: _86  and  _87
REMARK   36  A    between atoms: _89  and  _91
REMARK   37  A    between atoms: _91  and  _92
REMARK   38  A    between atoms: _91  and  _94
REMARK   39  A    between atoms: _94  and  _95
REMARK   40  A    between atoms: _98  and  _100
REMARK   41  A    between atoms: _100  and  _101
REMARK   42  A    between atoms: _100  and  _103
REMARK   43  A    between atoms: _103  and  _104
REMARK   44  A    between atoms: _107  and  _109
REMARK   45  A    between atoms: _109  and  _110
REMARK   46  A    between atoms: _113  and  _115
REMARK   47  A    between atoms: _115  and  _116
REMARK   48  A    between atoms: _115  and  _118
REMARK   49  A    between atoms: _118  and  _119
REMARK   50  A    between atoms: _119  and  _120
REMARK   51  A    between atoms: _120  and  _121
REMARK   52  A    between atoms: _121  and  _122
REMARK   53  A    between atoms: _126  and  _128
REMARK   54  A    between atoms: _128  and  _129
REMARK   55  A    between atoms: _131  and  _133
REMARK   56  A    between atoms: _133  and  _134
REMARK   57  A    between atoms: _133  and  _136
REMARK   58  A    between atoms: _136  and  _137
REMARK   59  A    between atoms: _140  and  _142
REMARK   60  A    between atoms: _142  and  _143
REMARK   61  A    between atoms: _142  and  _145
REMARK   62  A    between atoms: _145  and  _146
REMARK   63  A    between atoms: _149  and  _151
REMARK   64  A    between atoms: _151  and  _152
REMARK   65  A    between atoms: _151  and  _154
REMARK   66  A    between atoms: _154  and  _155
REMARK   67  A    between atoms: _161  and  _163
REMARK   68  A    between atoms: _163  and  _164
REMARK   69  A    between atoms: _167  and  _169
REMARK   70  A    between atoms: _169  and  _170
REMARK   71  A    between atoms: _169  and  _172
REMARK   72  A    between atoms: _172  and  _173
REMARK   73  A    between atoms: _175  and  _177
REMARK   74  A    between atoms: _177  and  _178
REMARK   75  A    between atoms: _177  and  _180
REMARK   76  A    between atoms: _180  and  _181
REMARK   77  A    between atoms: _181  and  _182
REMARK   78  A    between atoms: _182  and  _183
REMARK   79  A    between atoms: _183  and  _184
REMARK   80  A    between atoms: _188  and  _190
REMARK   81  A    between atoms: _190  and  _191
REMARK   82  A    between atoms: _190  and  _193
REMARK   83  A    between atoms: _193  and  _194
REMARK   84  A    between atoms: _194  and  _195
REMARK   85  A    between atoms: _200  and  _202
REMARK   86  A    between atoms: _202  and  _203
REMARK   87  A    between atoms: _202  and  _205
REMARK   88  A    between atoms: _205  and  _206
REMARK   89  A    between atoms: _209  and  _211
REMARK   90  A    between atoms: _211  and  _212
REMARK   91  A    between atoms: _211  and  _214
REMARK   92  A    between atoms: _214  and  _215
REMARK   93  A    between atoms: _218  and  _220
REMARK   94  A    between atoms: _220  and  _221
REMARK   95  A    between atoms: _220  and  _223
REMARK   96  A    between atoms: _223  and  _224
REMARK   97  A    between atoms: _227  and  _229
REMARK   98  A    between atoms: _229  and  _230
REMARK   99  A    between atoms: _229  and  _232
REMARK  100  A    between atoms: _232  and  _233
REMARK  101  A    between atoms: _233  and  _234
REMARK  102  A    between atoms: _234  and  _235
REMARK  103  A    between atoms: _244  and  _246
REMARK  104  A    between atoms: _246  and  _247
REMARK  105  A    between atoms: _246  and  _249
REMARK  106  A    between atoms: _249  and  _250
REMARK  107  A    between atoms: _253  and  _255
REMARK  108  A    between atoms: _255  and  _256
REMARK  109  A    between atoms: _255  and  _258
REMARK  110  A    between atoms: _258  and  _259
REMARK  111  A    between atoms: _259  and  _260
REMARK  112  A    between atoms: _260  and  _261
REMARK  113  A    between atoms: _261  and  _262
REMARK  114  A    between atoms: _266  and  _268
REMARK  115  A    between atoms: _268  and  _269
REMARK  116  A    between atoms: _268  and  _271
REMARK  117  A    between atoms: _271  and  _272
REMARK  118  A    between atoms: _272  and  _273
REMARK  119  A    between atoms: _275  and  _277
REMARK  120  A    between atoms: _277  and  _278
REMARK  121  A    between atoms: _277  and  _280
REMARK  122  A    between atoms: _280  and  _281
REMARK  123  A    between atoms: _281  and  _282
REMARK  124  A    between atoms: _285  and  _287
REMARK  125  A    between atoms: _287  and  _288
REMARK  126  A    between atoms: _287  and  _290
REMARK  127  A    between atoms: _292  and  _294
REMARK  128  A    between atoms: _294  and  _295
REMARK  129  A    between atoms: _294  and  _297
REMARK  130  A    between atoms: _297  and  _298
REMARK  131  A    between atoms: _301  and  _303
REMARK  132  A    between atoms: _303  and  _304
REMARK  133  A    between atoms: _303  and  _306
REMARK  134  A    between atoms: _306  and  _307
REMARK  135  A    between atoms: _310  and  _312
REMARK  136  A    between atoms: _312  and  _313
REMARK  137  A    between atoms: _312  and  _315
REMARK  138  A    between atoms: _315  and  _316
REMARK  139  A    between atoms: _319  and  _321
REMARK  140  A    between atoms: _321  and  _322
REMARK  141  A    between atoms: _321  and  _324
REMARK  142  A    between atoms: _324  and  _325
REMARK  143  A    between atoms: _330  and  _331
REMARK  144  A    between atoms: _333  and  _335
REMARK  145  A    between atoms: _335  and  _336
REMARK  146  A    between atoms: _335  and  _338
REMARK  147  A    between atoms: _338  and  _339
REMARK  148  A    between atoms: _342  and  _344
REMARK  149  A    between atoms: _344  and  _345
REMARK  150  A    between atoms: _344  and  _347
REMARK  151  A    between atoms: _349  and  _351
REMARK  152  A    between atoms: _351  and  _352
REMARK  153  A    between atoms: _351  and  _354
REMARK  154  A    between atoms: _354  and  _355
REMARK  155  A    between atoms: _358  and  _360
REMARK  156  A    between atoms: _360  and  _361
REMARK  157  A    between atoms: _363  and  _365
REMARK  158  A    between atoms: _365  and  _366
REMARK  159  A    between atoms: _365  and  _368
REMARK  160  A    between atoms: _368  and  _369
REMARK  161  A    between atoms: _369  and  _370
REMARK  162  A    between atoms: _370  and  _371
REMARK  163  A    between atoms: _371  and  _372
REMARK  164  A    between atoms: _376  and  _378
REMARK  165  A    between atoms: _378  and  _379
REMARK  166  A    between atoms: _378  and  _381
REMARK  167  A    between atoms: _381  and  _382
REMARK  168  A    between atoms: _387  and  _389
REMARK  169  A    between atoms: _389  and  _390
REMARK  170  A    between atoms: _389  and  _392
REMARK  171  A    between atoms: _392  and  _393
REMARK  172  A    between atoms: _396  and  _398
REMARK  173  A    between atoms: _398  and  _399
REMARK  174  A    between atoms: _398  and  _401
REMARK  175  A    between atoms: _401  and  _402
REMARK  176  A    between atoms: _412  and  _414
REMARK  177  A    between atoms: _414  and  _415
REMARK  178  A    between atoms: _414  and  _417
REMARK  179  A    between atoms: _417  and  _418
REMARK  180  A    between atoms: _418  and  _419
REMARK  181  A    between atoms: _419  and  _420
REMARK  182  A    between atoms: _420  and  _421
REMARK  183  A    between atoms: _426  and  _427
REMARK  184  A    between atoms: _432  and  _434
REMARK  185  A    between atoms: _434  and  _435
REMARK  186  A    between atoms: _438  and  _440
REMARK  187  A    between atoms: _440  and  _441
REMARK  188  A    between atoms: _440  and  _443
REMARK  189  A    between atoms: _446  and  _448
REMARK  190  A    between atoms: _448  and  _449
REMARK  191  A    between atoms: _448  and  _451
REMARK  192  A    between atoms: _451  and  _452
REMARK  193  A    between atoms: _452  and  _453
REMARK  194  A    between atoms: _456  and  _458
REMARK  195  A    between atoms: _458  and  _459
REMARK  196  A    between atoms: _462  and  _464
REMARK  197  A    between atoms: _464  and  _465
REMARK  198  A    between atoms: _464  and  _467
REMARK  199  A    between atoms: _467  and  _468
REMARK  200  A    between atoms: _473  and  _474
REMARK  201  A    between atoms: _476  and  _478
REMARK  202  A    between atoms: _478  and  _479
REMARK  203  A    between atoms: _481  and  _483
REMARK  204  A    between atoms: _483  and  _484
REMARK  205  A    between atoms: _483  and  _486
REMARK  206  A    between atoms: _486  and  _487
REMARK  207  A    between atoms: _487  and  _488
REMARK  208  A    between atoms: _491  and  _493
REMARK  209  A    between atoms: _493  and  _494
REMARK  210  A    between atoms: _493  and  _496
REMARK  211  A    between atoms: _496  and  _497
REMARK  212  A    between atoms: _503  and  _505
REMARK  213  A    between atoms: _505  and  _506
REMARK  214  A    between atoms: _505  and  _508
REMARK  215  A    between atoms: _508  and  _509
REMARK  216  A    between atoms: _512  and  _514
REMARK  217  A    between atoms: _514  and  _515
REMARK  218  A    between atoms: _514  and  _517
REMARK  219  A    between atoms: _519  and  _521
REMARK  220  A    between atoms: _521  and  _522
REMARK  221  A    between atoms: _521  and  _524
REMARK  222  A    between atoms: _524  and  _525
REMARK  223  A    between atoms: _531  and  _533
REMARK  224  A    between atoms: _533  and  _534
REMARK  225  A    between atoms: _533  and  _536
REMARK  226  A    between atoms: _536  and  _537
REMARK  227  A    between atoms: _537  and  _538
REMARK  228  A    between atoms: _541  and  _543
REMARK  229  A    between atoms: _543  and  _544
REMARK  230  A    between atoms: _543  and  _546
REMARK  231  A    between atoms: _546  and  _547
REMARK  232  A    between atoms: _550  and  _552
REMARK  233  A    between atoms: _552  and  _553
REMARK  234  A    between atoms: _552  and  _555
REMARK  235  A    between atoms: _555  and  _556
REMARK  236  A    between atoms: _556  and  _557
REMARK  237  A    between atoms: _557  and  _558
REMARK  238  A    between atoms: _567  and  _569
REMARK  239  A    between atoms: _569  and  _570
REMARK  240  A    between atoms: _569  and  _572
REMARK  241  A    between atoms: _572  and  _573
REMARK  242  A    between atoms: _576  and  _578
REMARK  243  A    between atoms: _578  and  _579
REMARK  244  A    between atoms: _578  and  _581
REMARK  245  A    between atoms: _581  and  _582
REMARK  246  A    between atoms: _588  and  _590
REMARK  247  A    between atoms: _590  and  _591
REMARK  248  A    between atoms: _590  and  _593
REMARK  249  A    between atoms: _596  and  _598
REMARK  250  A    between atoms: _598  and  _599
REMARK  251  A    between atoms: _603  and  _604
REMARK  252  A    between atoms: _609  and  _611
REMARK  253  A    between atoms: _611  and  _612
REMARK  254  A    between atoms: _611  and  _614
REMARK  255  A    between atoms: _614  and  _615
REMARK  256  A    between atoms: _618  and  _620
REMARK  257  A    between atoms: _620  and  _621
REMARK  258  A    between atoms: _620  and  _623
REMARK  259  A    between atoms: _623  and  _624
REMARK  260  A    between atoms: _631  and  _632
REMARK  261  A    between atoms: _637  and  _639
REMARK  262  A    between atoms: _639  and  _640
REMARK  263  A    between atoms: _639  and  _642
REMARK  264  A    between atoms: _645  and  _647
REMARK  265  A    between atoms: _647  and  _648
REMARK  266  A    between atoms: _651  and  _653
REMARK  267  A    between atoms: _653  and  _654
REMARK  268  A    between atoms: _653  and  _656
REMARK  269  A    between atoms: _656  and  _657
REMARK  270  A    between atoms: _662  and  _663
REMARK  271  A    between atoms: _665  and  _667
REMARK  272  A    between atoms: _667  and  _668
REMARK  273  A    between atoms: _667  and  _670
REMARK  274  A    between atoms: _670  and  _671
REMARK  275  A    between atoms: _676  and  _678
REMARK  276  A    between atoms: _678  and  _679
REMARK  277  A    between atoms: _678  and  _681
REMARK  278  A    between atoms: _681  and  _682
REMARK  279  A    between atoms: _685  and  _687
REMARK  280  A    between atoms: _687  and  _688
REMARK  281  A    between atoms: _687  and  _690
REMARK  282  A    between atoms: _690  and  _691
REMARK  283  A    between atoms: _694  and  _696
REMARK  284  A    between atoms: _696  and  _697
REMARK  285  A    between atoms: _696  and  _699
REMARK  286  A    between atoms: _699  and  _700
REMARK  287  A    between atoms: _700  and  _701
REMARK  288  A    between atoms: _701  and  _702
REMARK  289  A    between atoms: _702  and  _703
REMARK  290  A    between atoms: _707  and  _709
REMARK  291  A    between atoms: _709  and  _710
REMARK  292  A    between atoms: _709  and  _712
REMARK  293  A    between atoms: _712  and  _713
REMARK  294  A    between atoms: _719  and  _721
REMARK  295  A    between atoms: _721  and  _722
REMARK  296  A    between atoms: _721  and  _724
REMARK  297  A    between atoms: _724  and  _725
REMARK  298  A    between atoms: _728  and  _730
REMARK  299  A    between atoms: _730  and  _731
REMARK  300  A    between atoms: _730  and  _733
REMARK  301  A    between atoms: _733  and  _734
REMARK  302  A    between atoms: _736  and  _738
REMARK  303  A    between atoms: _738  and  _739
REMARK  304  A    between atoms: _738  and  _741
REMARK  305  A    between atoms: _741  and  _742
REMARK  306  A    between atoms: _745  and  _747
REMARK  307  A    between atoms: _747  and  _748
REMARK  308  A    between atoms: _747  and  _750
REMARK  309  A    between atoms: _750  and  _751
REMARK  310  A    between atoms: _751  and  _752
REMARK  311  A    between atoms: _752  and  _753
REMARK  312  A    between atoms: _762  and  _764
REMARK  313  A    between atoms: _764  and  _765
REMARK  314  A    between atoms: _764  and  _767
REMARK  315  A    between atoms: _767  and  _768
REMARK  316  A    between atoms: _771  and  _773
REMARK  317  A    between atoms: _773  and  _774
REMARK  318  A    between atoms: _773  and  _776
REMARK  319  A    between atoms: _776  and  _777
REMARK  320  A    between atoms: _777  and  _778
REMARK  321  A    between atoms: _780  and  _782
REMARK  322  A    between atoms: _782  and  _783
REMARK  323  A    between atoms: _782  and  _785
REMARK  324  A    between atoms: _788  and  _790
REMARK  325  A    between atoms: _790  and  _791
REMARK  326  A    between atoms: _790  and  _793
REMARK  327  A    between atoms: _793  and  _794
REMARK                            x       y       z     vdW  Elec       q    Type
REMARK                         _______ _______ _______ _____ _____    ______ ____
ROOT
ATOM      1  C   PHE A   1      78.224   1.694   9.864  0.00  0.00    +0.239 C 
ATOM      2  N   GLU A   2      78.705   1.880  11.088  0.00  0.00    -0.298 N 
ATOM      3  H   GLU A   2      79.267   2.732  11.289  0.00  0.00    +0.150 HD
ATOM      4  O   PHE A   1      77.506   0.721   9.594  0.00  0.00    -0.274 OA
ENDROOT
BRANCH   1   5
ATOM      5  CA  PHE A   1      78.594   2.727   8.788  0.00  0.00    +0.149 C 
BRANCH   5   6
ATOM      6  N   PHE A   1      78.391   4.079   9.287  0.00  0.00    -0.238 NA
ATOM      7  H   PHE A   1      79.199   4.732   9.331  0.00  0.00    +0.142 HD
ENDBRANCH   5   6
BRANCH   5   8
ATOM      8  CB  PHE A   1      80.048   2.557   8.327  0.00  0.00    +0.053 C 
BRANCH   8   9
ATOM      9  CG  PHE A   1      80.375   1.183   7.891  0.00  0.00    -0.020 A 
ATOM     10  CD2 PHE A   1      81.111   0.339   8.705  0.00  0.00    -0.004 A 
ATOM     11  CE2 PHE A   1      81.402  -0.977   8.292  0.00  0.00    -0.000 A 
ATOM     12  CZ  PHE A   1      80.940  -1.421   7.072  0.00  0.00    -0.000 A 
ATOM     13  CE1 PHE A   1      80.203  -0.585   6.251  0.00  0.00    -0.000 A 
ATOM     14  CD1 PHE A   1      79.924   0.728   6.670  0.00  0.00    -0.004 A 
ENDBRANCH   8   9
ENDBRANCH   5   8
ENDBRANCH   1   5
BRANCH   2  15
ATOM     15  CA  GLU A   2      78.464   0.918  12.155  0.00  0.00    +0.137 C 
BRANCH  15  16
ATOM     16  C   GLU A   2      76.993   0.831  12.509  0.00  0.00    +0.227 C 
ATOM     17  O   GLU A   2      76.505  -0.258  12.820  0.00  0.00    -0.286 OA
ENDBRANCH  15  16
BRANCH  15  18
ATOM     18  CB  GLU A   2      79.272   1.258  13.406  0.00  0.00    +0.039 C 
BRANCH  18  19
ATOM     19  CG  GLU A   2      80.751   1.173  13.192  0.00  0.00    +0.116 C 
BRANCH  19  20
ATOM     20  CD  GLU A   2      81.302  -0.231  13.151  0.00  0.00    +0.365 C 
ATOM     21  OE2 GLU A   2      80.537  -1.225  13.276  0.00  0.00    -0.246 OA
ATOM     22  OE1 GLU A   2      82.529  -0.344  12.969  0.00  0.00    -0.246 OA
ENDBRANCH  19  20
ENDBRANCH  18  19
ENDBRANCH  15  18
ENDBRANCH   2  15
TORSDOF 9
REMARK  Name = ../refined-set-2016/4omj/4omj_pocket.pdb
REMARK  327 active torsions:
REMARK  status: ('A' for Active; 'I' for Inactive)
REMARK    1  A    between atoms: _1  and  _3
REMARK    2  A    between atoms: _3  and  _4
REMARK    3  A    between atoms: _3  and  _6
REMARK    4  A    between atoms: _6  and  _7
REMARK    5  A    between atoms: _10  and  _12
REMARK    6  A    between atoms: _12  and  _13
REMARK    7  A    between atoms: _12  and  _15
REMARK    8  A    between atoms: _15  and  _16
REMARK    9  A    between atoms: _21  and  _22
REMARK   10  A    between atoms: _24  and  _26
REMARK   11  A    between atoms: _26  and  _27
REMARK   12  A    between atoms: _26  and  _29
REMARK   13  A    between atoms: _29  and  _30
REMARK   14  A    between atoms: _33  and  _35
REMARK   15  A    between atoms: _35  and  _36
REMARK   16  A    between atoms: _35  and  _38
REMARK   17  A    between atoms: _38  and  _39
REMARK   18  A    between atoms: _41  and  _43
REMARK   19  A    between atoms: _43  and  _44
REMARK   20  A    between atoms: _43  and  _46
REMARK   21  A    between atoms: _46  and  _47
REMARK   22  A    between atoms: _57  and  _59
REMARK   23  A    between atoms: _59  and  _60
REMARK   24  A    between atoms: _59  and  _62
REMARK   25  A    between atoms: _62  and  _63
REMARK   26  A    between atoms: _66  and  _68
REMARK   27  A    between atoms: _68  and  _69
REMARK   28  A    between atoms: _68  and  _71
REMARK   29  A    between atoms: _71  and  _72
REMARK   30  A    between atoms: _75  and  _77
REMARK   31  A    between atoms: _77  and  _78
REMARK   32  A    between atoms: _77  and  _80
REMARK   33  A    between atoms: _80  and  _81
REMARK   34  A    between atoms: _84  and  _86
REMARK   35  A    between atoms: _86  and  _87
REMARK   36  A    between atoms: _89  and  _91
REMARK   37  A    between atoms: _91  and  _92
REMARK   38  A    between atoms: _91  and  _94
REMARK   39  A    between atoms: _94  and  _95
REMARK   40  A    between atoms: _98  and  _100
REMARK   41  A    between atoms: _100  and  _101
REMARK   42  A    between atoms: _100  and  _103
REMARK   43  A    between atoms: _103  and  _104
REMARK   44  A    between atoms: _107  and  _109
REMARK   45  A    between atoms: _109  and  _110
REMARK   46  A    between atoms: _113  and  _115
REMARK   47  A    between atoms: _115  and  _116
REMARK   48  A    between atoms: _115  and  _118
REMARK   49  A    between atoms: _118  and  _119
REMARK   50  A    between atoms: _119  and  _120
REMARK   51  A    between atoms: _120  and  _121
REMARK   52  A    between atoms: _121  and  _122
REMARK   53  A    between atoms: _126  and  _128
REMARK   54  A    between atoms: _128  and  _129
REMARK   55  A    between atoms: _131  and  _133
REMARK   56  A    between atoms: _133  and  _134
REMARK   57  A    between atoms: _133  and  _136
REMARK   58  A    between atoms: _136  and  _137
REMARK   59  A    between atoms: _140  and  _142
REMARK   60  A    between atoms: _142  and  _143
REMARK   61  A    between atoms: _142  and  _145
REMARK   62  A    between atoms: _145  and  _146
REMARK   63  A    between atoms: _149  and  _151
REMARK   64  A    between atoms: _151  and  _152
REMARK   65  A    between atoms: _151  and  _154
REMARK   66  A    between atoms: _154  and  _155
REMARK   67  A    between atoms: _161  and  _163
REMARK   68  A    between atoms: _163  and  _164
REMARK   69  A    between atoms: _167  and  _169
REMARK   70  A    between atoms: _169  and  _170
REMARK   71  A    between atoms: _169  and  _172
REMARK   72  A    between atoms: _172  and  _173
REMARK   73  A    between atoms: _175  and  _177
REMARK   74  A    between atoms: _177  and  _178
REMARK   75  A    between atoms: _177  and  _180
REMARK   76  A    between atoms: _180  and  _181
REMARK   77  A    between atoms: _181  and  _182
REMARK   78  A    between atoms: _182  and  _183
REMARK   79  A    between atoms: _183  and  _184
REMARK   80  A    between atoms: _188  and  _190
REMARK   81  A    between atoms: _190  and  _191
REMARK   82  A    between atoms: _190  and  _193
REMARK   83  A    between atoms: _193  and  _194
REMARK   84  A    between atoms: _194  and  _195
REMARK   85  A    between atoms: _200  and  _202
REMARK   86  A    between atoms: _202  and  _203
REMARK   87  A    between atoms: _202  and  _205
REMARK   88  A    between atoms: _205  and  _206
REMARK   89  A    between atoms: _209  and  _211
REMARK   90  A    between atoms: _211  and  _212
REMARK   91  A    between atoms: _211  and  _214
REMARK   92  A    between atoms: _214  and  _215
REMARK   93  A    between atoms: _218  and  _220
REMARK   94  A    between atoms: _220  and  _221
REMARK   95  A    between atoms: _220  and  _223
REMARK   96  A    between atoms: _223  and  _224
REMARK   97  A    between atoms: _227  and  _229
REMARK   98  A    between atoms: _229  and  _230
REMARK   99  A    between atoms: _229  and  _232
REMARK  100  A    between atoms: _232  and  _233
REMARK  101  A    between atoms: _233  and  _234
REMARK  102  A    between atoms: _234  and  _235
REMARK  103  A    between atoms: _244  and  _246
REMARK  104  A    between atoms: _246  and  _247
REMARK  105  A    between atoms: _246  and  _249
REMARK  106  A    between atoms: _249  and  _250
REMARK  107  A    between atoms: _253  and  _255
REMARK  108  A    between atoms: _255  and  _256
REMARK  109  A    between atoms: _255  and  _258
REMARK  110  A    between atoms: _258  and  _259
REMARK  111  A    between atoms: _259  and  _260
REMARK  112  A    between atoms: _260  and  _261
REMARK  113  A    between atoms: _261  and  _262
REMARK  114  A    between atoms: _266  and  _268
REMARK  115  A    between atoms: _268  and  _269
REMARK  116  A    between atoms: _268  and  _271
REMARK  117  A    between atoms: _271  and  _272
REMARK  118  A    between atoms: _272  and  _273
REMARK  119  A    between atoms: _275  and  _277
REMARK  120  A    between atoms: _277  and  _278
REMARK  121  A    between atoms: _277  and  _280
REMARK  122  A    between atoms: _280  and  _281
REMARK  123  A    between atoms: _281  and  _282
REMARK  124  A    between atoms: _285  and  _287
REMARK  125  A    between atoms: _287  and  _288
REMARK  126  A    between atoms: _287  and  _290
REMARK  127  A    between atoms: _292  and  _294
REMARK  128  A    between atoms: _294  and  _295
REMARK  129  A    between atoms: _294  and  _297
REMARK  130  A    between atoms: _297  and  _298
REMARK  131  A    between atoms: _301  and  _303
REMARK  132  A    between atoms: _303  and  _304
REMARK  133  A    between atoms: _303  and  _306
REMARK  134  A    between atoms: _306  and  _307
REMARK  135  A    between atoms: _310  and  _312
REMARK  136  A    between atoms: _312  and  _313
REMARK  137  A    between atoms: _312  and  _315
REMARK  138  A    between atoms: _315  and  _316
REMARK  139  A    between atoms: _319  and  _321
REMARK  140  A    between atoms: _321  and  _322
REMARK  141  A    between atoms: _321  and  _324
REMARK  142  A    between atoms: _324  and  _325
REMARK  143  A    between atoms: _330  and  _331
REMARK  144  A    between atoms: _333  and  _335
REMARK  145  A    between atoms: _335  and  _336
REMARK  146  A    between atoms: _335  and  _338
REMARK  147  A    between atoms: _338  and  _339
REMARK  148  A    between atoms: _342  and  _344
REMARK  149  A    between atoms: _344  and  _345
REMARK  150  A    between atoms: _344  and  _347
REMARK  151  A    between atoms: _349  and  _351
REMARK  152  A    between atoms: _351  and  _352
REMARK  153  A    between atoms: _351  and  _354
REMARK  154  A    between atoms: _354  and  _355
REMARK  155  A    between atoms: _358  and  _360
REMARK  156  A    between atoms: _360  and  _361
REMARK  157  A    between atoms: _363  and  _365
REMARK  158  A    between atoms: _365  and  _366
REMARK  159  A    between atoms: _365  and  _368
REMARK  160  A    between atoms: _368  and  _369
REMARK  161  A    between atoms: _369  and  _370
REMARK  162  A    between atoms: _370  and  _371
REMARK  163  A    between atoms: _371  and  _372
REMARK  164  A    between atoms: _376  and  _378
REMARK  165  A    between atoms: _378  and  _379
REMARK  166  A    between atoms: _378  and  _381
REMARK  167  A    between atoms: _381  and  _382
REMARK  168  A    between atoms: _387  and  _389
REMARK  169  A    between atoms: _389  and  _390
REMARK  170  A    between atoms: _389  and  _392
REMARK  171  A    between atoms: _392  and  _393
REMARK  172  A    between atoms: _396  and  _398
REMARK  173  A    between atoms: _398  and  _399
REMARK  174  A    between atoms: _398  and  _401
REMARK  175  A    between atoms: _401  and  _402
REMARK  176  A    between atoms: _412  and  _414
REMARK  177  A    between atoms: _414  and  _415
REMARK  178  A    between atoms: _414  and  _417
REMARK  179  A    between atoms: _417  and  _418
REMARK  180  A    between atoms: _418  and  _419
REMARK  181  A    between atoms: _419  and  _420
REMARK  182  A    between atoms: _420  and  _421
REMARK  183  A    between atoms: _426  and  _427
REMARK  184  A    between atoms: _432  and  _434
REMARK  185  A    between atoms: _434  and  _435
REMARK  186  A    between atoms: _438  and  _440
REMARK  187  A    between atoms: _440  and  _441
REMARK  188  A    between atoms: _440  and  _443
REMARK  189  A    between atoms: _446  and  _448
REMARK  190  A    between atoms: _448  and  _449
REMARK  191  A    between atoms: _448  and  _451
REMARK  192  A    between atoms: _451  and  _452
REMARK  193  A    between atoms: _452  and  _453
REMARK  194  A    between atoms: _456  and  _458
REMARK  195  A    between atoms: _458  and  _459
REMARK  196  A    between atoms: _462  and  _464
REMARK  197  A    between atoms: _464  and  _465
REMARK  198  A    between atoms: _464  and  _467
REMARK  199  A    between atoms: _467  and  _468
REMARK  200  A    between atoms: _473  and  _474
REMARK  201  A    between atoms: _476  and  _478
REMARK  202  A    between atoms: _478  and  _479
REMARK  203  A    between atoms: _481  and  _483
REMARK  204  A    between atoms: _483  and  _484
REMARK  205  A    between atoms: _483  and  _486
REMARK  206  A    between atoms: _486  and  _487
REMARK  207  A    between atoms: _487  and  _488
REMARK  208  A    between atoms: _491  and  _493
REMARK  209  A    between atoms: _493  and  _494
REMARK  210  A    between atoms: _493  and  _496
REMARK  211  A    between atoms: _496  and  _497
REMARK  212  A    between atoms: _503  and  _505
REMARK  213  A    between atoms: _505  and  _506
REMARK  214  A    between atoms: _505  and  _508
REMARK  215  A    between atoms: _508  and  _509
REMARK  216  A    between atoms: _512  and  _514
REMARK  217  A    between atoms: _514  and  _515
REMARK  218  A    between atoms: _514  and  _517
REMARK  219  A    between atoms: _519  and  _521
REMARK  220  A    between atoms: _521  and  _522
REMARK  221  A    between atoms: _521  and  _524
REMARK  222  A    between atoms: _524  and  _525
REMARK  223  A    between atoms: _531  and  _533
REMARK  224  A    between atoms: _533  and  _534
REMARK  225  A    between atoms: _533  and  _536
REMARK  226  A    between atoms: _536  and  _537
REMARK  227  A    between atoms: _537  and  _538
REMARK  228  A    between atoms: _541  and  _543
REMARK  229  A    between atoms: _543  and  _544
REMARK  230  A    between atoms: _543  and  _546
REMARK  231  A    between atoms: _546  and  _547
REMARK  232  A    between atoms: _550  and  _552
REMARK  233  A    between atoms: _552  and  _553
REMARK  234  A    between atoms: _552  and  _555
REMARK  235  A    between atoms: _555  and  _556
REMARK  236  A    between atoms: _556  and  _557
REMARK  237  A    between atoms: _557  and  _558
REMARK  238  A    between atoms: _567  and  _569
REMARK  239  A    between atoms: _569  and  _570
REMARK  240  A    between atoms: _569  and  _572
REMARK  241  A    between atoms: _572  and  _573
REMARK  242  A    between atoms: _576  and  _578
REMARK  243  A    between atoms: _578  and  _579
REMARK  244  A    between atoms: _578  and  _581
REMARK  245  A    between atoms: _581  and  _582
REMARK  246  A    between atoms: _588  and  _590
REMARK  247  A    between atoms: _590  and  _591
REMARK  248  A    between atoms: _590  and  _593
REMARK  249  A    between atoms: _596  and  _598
REMARK  250  A    between atoms: _598  and  _599
REMARK  251  A    between atoms: _603  and  _604
REMARK  252  A    between atoms: _609  and  _611
REMARK  253  A    between atoms: _611  and  _612
REMARK  254  A    between atoms: _611  and  _614
REMARK  255  A    between atoms: _614  and  _615
REMARK  256  A    between atoms: _618  and  _620
REMARK  257  A    between atoms: _620  and  _621
REMARK  258  A    between atoms: _620  and  _623
REMARK  259  A    between atoms: _623  and  _624
REMARK  260  A    between atoms: _631  and  _632
REMARK  261  A    between atoms: _637  and  _639
REMARK  262  A    between atoms: _639  and  _640
REMARK  263  A    between atoms: _639  and  _642
REMARK  264  A    between atoms: _645  and  _647
REMARK  265  A    between atoms: _647  and  _648
REMARK  266  A    between atoms: _651  and  _653
REMARK  267  A    between atoms: _653  and  _654
REMARK  268  A    between atoms: _653  and  _656
REMARK  269  A    between atoms: _656  and  _657
REMARK  270  A    between atoms: _662  and  _663
REMARK  271  A    between atoms: _665  and  _667
REMARK  272  A    between atoms: _667  and  _668
REMARK  273  A    between atoms: _667  and  _670
REMARK  274  A    between atoms: _670  and  _671
REMARK  275  A    between atoms: _676  and  _678
REMARK  276  A    between atoms: _678  and  _679
REMARK  277  A    between atoms: _678  and  _681
REMARK  278  A    between atoms: _681  and  _682
REMARK  279  A    between atoms: _685  and  _687
REMARK  280  A    between atoms: _687  and  _688
REMARK  281  A    between atoms: _687  and  _690
REMARK  282  A    between atoms: _690  and  _691
REMARK  283  A    between atoms: _694  and  _696
REMARK  284  A    between atoms: _696  and  _697
REMARK  285  A    between atoms: _696  and  _699
REMARK  286  A    between atoms: _699  and  _700
REMARK  287  A    between atoms: _700  and  _701
REMARK  288  A    between atoms: _701  and  _702
REMARK  289  A    between atoms: _702  and  _703
REMARK  290  A    between atoms: _707  and  _709
REMARK  291  A    between atoms: _709  and  _710
REMARK  292  A    between atoms: _709  and  _712
REMARK  293  A    between atoms: _712  and  _713
REMARK  294  A    between atoms: _719  and  _721
REMARK  295  A    between atoms: _721  and  _722
REMARK  296  A    between atoms: _721  and  _724
REMARK  297  A    between atoms: _724  and  _725
REMARK  298  A    between atoms: _728  and  _730
REMARK  299  A    between atoms: _730  and  _731
REMARK  300  A    between atoms: _730  and  _733
REMARK  301  A    between atoms: _733  and  _734
REMARK  302  A    between atoms: _736  and  _738
REMARK  303  A    between atoms: _738  and  _739
REMARK  304  A    between atoms: _738  and  _741
REMARK  305  A    between atoms: _741  and  _742
REMARK  306  A    between atoms: _745  and  _747
REMARK  307  A    between atoms: _747  and  _748
REMARK  308  A    between atoms: _747  and  _750
REMARK  309  A    between atoms: _750  and  _751
REMARK  310  A    between atoms: _751  and  _752
REMARK  311  A    between atoms: _752  and  _753
REMARK  312  A    between atoms: _762  and  _764
REMARK  313  A    between atoms: _764  and  _765
REMARK  314  A    between atoms: _764  and  _767
REMARK  315  A    between atoms: _767  and  _768
REMARK  316  A    between atoms: _771  and  _773
REMARK  317  A    between atoms: _773  and  _774
REMARK  318  A    between atoms: _773  and  _776
REMARK  319  A    between atoms: _776  and  _777
REMARK  320  A    between atoms: _777  and  _778
REMARK  321  A    between atoms: _780  and  _782
REMARK  322  A    between atoms: _782  and  _783
REMARK  323  A    between atoms: _782  and  _785
REMARK  324  A    between atoms: _788  and  _790
REMARK  325  A    between atoms: _790  and  _791
REMARK  326  A    between atoms: _790  and  _793
REMARK  327  A    between atoms: _793  and  _794
REMARK                            x       y       z     vdW  Elec       q    Type
REMARK                         _______ _______ _______ _____ _____    ______ ____
ROOT
ATOM      1  CA  LEU A   1      82.338  -6.203   6.635  0.00  0.00    +0.133 C 
ENDROOT
BRANCH   1   2
ATOM      2  N   LEU A   1      80.914  -6.015   6.896  0.00  0.00    -0.239 NA
ATOM      3  H   LEU A   1      80.604  -5.586   7.791  0.00  0.00    +0.142 HD
ENDBRANCH   1   2
BRANCH   1   4
ATOM      4  C   LEU A   1      82.738  -7.640   6.901  0.00  0.00    +0.224 C 
ATOM      5  O   LEU A   1      82.460  -8.164   7.988  0.00  0.00    -0.287 OA
ENDBRANCH   1   4
BRANCH   1   6
ATOM      6  CB  LEU A   1      83.161  -5.275   7.539  0.00  0.00    +0.025 C 
BRANCH   6   7
ATOM      7  CG  LEU A   1      84.675  -5.319   7.366  0.00  0.00    +0.002 C 
ATOM      8  CD2 LEU A   1      85.355  -4.432   8.406  0.00  0.00    +0.000 C 
ATOM      9  CD1 LEU A   1      85.073  -4.879   5.980  0.00  0.00    +0.000 C 
ENDBRANCH   6   7
ENDBRANCH   1   6
TORSDOF 4
REMARK  Name = ../refined-set-2016/4omj/4omj_pocket.pdb
REMARK  327 active torsions:
REMARK  status: ('A' for Active; 'I' for Inactive)
REMARK    1  A    between atoms: _1  and  _3
REMARK    2  A    between atoms: _3  and  _4
REMARK    3  A    between atoms: _3  and  _6
REMARK    4  A    between atoms: _6  and  _7
REMARK    5  A    between atoms: _10  and  _12
REMARK    6  A    between atoms: _12  and  _13
REMARK    7  A    between atoms: _12  and  _15
REMARK    8  A    between atoms: _15  and  _16
REMARK    9  A    between atoms: _21  and  _22
REMARK   10  A    between atoms: _24  and  _26
REMARK   11  A    between atoms: _26  and  _27
REMARK   12  A    between atoms: _26  and  _29
REMARK   13  A    between atoms: _29  and  _30
REMARK   14  A    between atoms: _33  and  _35
REMARK   15  A    between atoms: _35  and  _36
REMARK   16  A    between atoms: _35  and  _38
REMARK   17  A    between atoms: _38  and  _39
REMARK   18  A    between atoms: _41  and  _43
REMARK   19  A    between atoms: _43  and  _44
REMARK   20  A    between atoms: _43  and  _46
REMARK   21  A    between atoms: _46  and  _47
REMARK   22  A    between atoms: _57  and  _59
REMARK   23  A    between atoms: _59  and  _60
REMARK   24  A    between atoms: _59  and  _62
REMARK   25  A    between atoms: _62  and  _63
REMARK   26  A    between atoms: _66  and  _68
REMARK   27  A    between atoms: _68  and  _69
REMARK   28  A    between atoms: _68  and  _71
REMARK   29  A    between atoms: _71  and  _72
REMARK   30  A    between atoms: _75  and  _77
REMARK   31  A    between atoms: _77  and  _78
REMARK   32  A    between atoms: _77  and  _80
REMARK   33  A    between atoms: _80  and  _81
REMARK   34  A    between atoms: _84  and  _86
REMARK   35  A    between atoms: _86  and  _87
REMARK   36  A    between atoms: _89  and  _91
REMARK   37  A    between atoms: _91  and  _92
REMARK   38  A    between atoms: _91  and  _94
REMARK   39  A    between atoms: _94  and  _95
REMARK   40  A    between atoms: _98  and  _100
REMARK   41  A    between atoms: _100  and  _101
REMARK   42  A    between atoms: _100  and  _103
REMARK   43  A    between atoms: _103  and  _104
REMARK   44  A    between atoms: _107  and  _109
REMARK   45  A    between atoms: _109  and  _110
REMARK   46  A    between atoms: _113  and  _115
REMARK   47  A    between atoms: _115  and  _116
REMARK   48  A    between atoms: _115  and  _118
REMARK   49  A    between atoms: _118  and  _119
REMARK   50  A    between atoms: _119  and  _120
REMARK   51  A    between atoms: _120  and  _121
REMARK   52  A    between atoms: _121  and  _122
REMARK   53  A    between atoms: _126  and  _128
REMARK   54  A    between atoms: _128  and  _129
REMARK   55  A    between atoms: _131  and  _133
REMARK   56  A    between atoms: _133  and  _134
REMARK   57  A    between atoms: _133  and  _136
REMARK   58  A    between atoms: _136  and  _137
REMARK   59  A    between atoms: _140  and  _142
REMARK   60  A    between atoms: _142  and  _143
REMARK   61  A    between atoms: _142  and  _145
REMARK   62  A    between atoms: _145  and  _146
REMARK   63  A    between atoms: _149  and  _151
REMARK   64  A    between atoms: _151  and  _152
REMARK   65  A    between atoms: _151  and  _154
REMARK   66  A    between atoms: _154  and  _155
REMARK   67  A    between atoms: _161  and  _163
REMARK   68  A    between atoms: _163  and  _164
REMARK   69  A    between atoms: _167  and  _169
REMARK   70  A    between atoms: _169  and  _170
REMARK   71  A    between atoms: _169  and  _172
REMARK   72  A    between atoms: _172  and  _173
REMARK   73  A    between atoms: _175  and  _177
REMARK   74  A    between atoms: _177  and  _178
REMARK   75  A    between atoms: _177  and  _180
REMARK   76  A    between atoms: _180  and  _181
REMARK   77  A    between atoms: _181  and  _182
REMARK   78  A    between atoms: _182  and  _183
REMARK   79  A    between atoms: _183  and  _184
REMARK   80  A    between atoms: _188  and  _190
REMARK   81  A    between atoms: _190  and  _191
REMARK   82  A    between atoms: _190  and  _193
REMARK   83  A    between atoms: _193  and  _194
REMARK   84  A    between atoms: _194  and  _195
REMARK   85  A    between atoms: _200  and  _202
REMARK   86  A    between atoms: _202  and  _203
REMARK   87  A    between atoms: _202  and  _205
REMARK   88  A    between atoms: _205  and  _206
REMARK   89  A    between atoms: _209  and  _211
REMARK   90  A    between atoms: _211  and  _212
REMARK   91  A    between atoms: _211  and  _214
REMARK   92  A    between atoms: _214  and  _215
REMARK   93  A    between atoms: _218  and  _220
REMARK   94  A    between atoms: _220  and  _221
REMARK   95  A    between atoms: _220  and  _223
REMARK   96  A    between atoms: _223  and  _224
REMARK   97  A    between atoms: _227  and  _229
REMARK   98  A    between atoms: _229  and  _230
REMARK   99  A    between atoms: _229  and  _232
REMARK  100  A    between atoms: _232  and  _233
REMARK  101  A    between atoms: _233  and  _234
REMARK  102  A    between atoms: _234  and  _235
REMARK  103  A    between atoms: _244  and  _246
REMARK  104  A    between atoms: _246  and  _247
REMARK  105  A    between atoms: _246  and  _249
REMARK  106  A    between atoms: _249  and  _250
REMARK  107  A    between atoms: _253  and  _255
REMARK  108  A    between atoms: _255  and  _256
REMARK  109  A    between atoms: _255  and  _258
REMARK  110  A    between atoms: _258  and  _259
REMARK  111  A    between atoms: _259  and  _260
REMARK  112  A    between atoms: _260  and  _261
REMARK  113  A    between atoms: _261  and  _262
REMARK  114  A    between atoms: _266  and  _268
REMARK  115  A    between atoms: _268  and  _269
REMARK  116  A    between atoms: _268  and  _271
REMARK  117  A    between atoms: _271  and  _272
REMARK  118  A    between atoms: _272  and  _273
REMARK  119  A    between atoms: _275  and  _277
REMARK  120  A    between atoms: _277  and  _278
REMARK  121  A    between atoms: _277  and  _280
REMARK  122  A    between atoms: _280  and  _281
REMARK  123  A    between atoms: _281  and  _282
REMARK  124  A    between atoms: _285  and  _287
REMARK  125  A    between atoms: _287  and  _288
REMARK  126  A    between atoms: _287  and  _290
REMARK  127  A    between atoms: _292  and  _294
REMARK  128  A    between atoms: _294  and  _295
REMARK  129  A    between atoms: _294  and  _297
REMARK  130  A    between atoms: _297  and  _298
REMARK  131  A    between atoms: _301  and  _303
REMARK  132  A    between atoms: _303  and  _304
REMARK  133  A    between atoms: _303  and  _306
REMARK  134  A    between atoms: _306  and  _307
REMARK  135  A    between atoms: _310  and  _312
REMARK  136  A    between atoms: _312  and  _313
REMARK  137  A    between atoms: _312  and  _315
REMARK  138  A    between atoms: _315  and  _316
REMARK  139  A    between atoms: _319  and  _321
REMARK  140  A    between atoms: _321  and  _322
REMARK  141  A    between atoms: _321  and  _324
REMARK  142  A    between atoms: _324  and  _325
REMARK  143  A    between atoms: _330  and  _331
REMARK  144  A    between atoms: _333  and  _335
REMARK  145  A    between atoms: _335  and  _336
REMARK  146  A    between atoms: _335  and  _338
REMARK  147  A    between atoms: _338  and  _339
REMARK  148  A    between atoms: _342  and  _344
REMARK  149  A    between atoms: _344  and  _345
REMARK  150  A    between atoms: _344  and  _347
REMARK  151  A    between atoms: _349  and  _351
REMARK  152  A    between atoms: _351  and  _352
REMARK  153  A    between atoms: _351  and  _354
REMARK  154  A    between atoms: _354  and  _355
REMARK  155  A    between atoms: _358  and  _360
REMARK  156  A    between atoms: _360  and  _361
REMARK  157  A    between atoms: _363  and  _365
REMARK  158  A    between atoms: _365  and  _366
REMARK  159  A    between atoms: _365  and  _368
REMARK  160  A    between atoms: _368  and  _369
REMARK  161  A    between atoms: _369  and  _370
REMARK  162  A    between atoms: _370  and  _371
REMARK  163  A    between atoms: _371  and  _372
REMARK  164  A    between atoms: _376  and  _378
REMARK  165  A    between atoms: _378  and  _379
REMARK  166  A    between atoms: _378  and  _381
REMARK  167  A    between atoms: _381  and  _382
REMARK  168  A    between atoms: _387  and  _389
REMARK  169  A    between atoms: _389  and  _390
REMARK  170  A    between atoms: _389  and  _392
REMARK  171  A    between atoms: _392  and  _393
REMARK  172  A    between atoms: _396  and  _398
REMARK  173  A    between atoms: _398  and  _399
REMARK  174  A    between atoms: _398  and  _401
REMARK  175  A    between atoms: _401  and  _402
REMARK  176  A    between atoms: _412  and  _414
REMARK  177  A    between atoms: _414  and  _415
REMARK  178  A    between atoms: _414  and  _417
REMARK  179  A    between atoms: _417  and  _418
REMARK  180  A    between atoms: _418  and  _419
REMARK  181  A    between atoms: _419  and  _420
REMARK  182  A    between atoms: _420  and  _421
REMARK  183  A    between atoms: _426  and  _427
REMARK  184  A    between atoms: _432  and  _434
REMARK  185  A    between atoms: _434  and  _435
REMARK  186  A    between atoms: _438  and  _440
REMARK  187  A    between atoms: _440  and  _441
REMARK  188  A    between atoms: _440  and  _443
REMARK  189  A    between atoms: _446  and  _448
REMARK  190  A    between atoms: _448  and  _449
REMARK  191  A    between atoms: _448  and  _451
REMARK  192  A    between atoms: _451  and  _452
REMARK  193  A    between atoms: _452  and  _453
REMARK  194  A    between atoms: _456  and  _458
REMARK  195  A    between atoms: _458  and  _459
REMARK  196  A    between atoms: _462  and  _464
REMARK  197  A    between atoms: _464  and  _465
REMARK  198  A    between atoms: _464  and  _467
REMARK  199  A    between atoms: _467  and  _468
REMARK  200  A    between atoms: _473  and  _474
REMARK  201  A    between atoms: _476  and  _478
REMARK  202  A    between atoms: _478  and  _479
REMARK  203  A    between atoms: _481  and  _483
REMARK  204  A    between atoms: _483  and  _484
REMARK  205  A    between atoms: _483  and  _486
REMARK  206  A    between atoms: _486  and  _487
REMARK  207  A    between atoms: _487  and  _488
REMARK  208  A    between atoms: _491  and  _493
REMARK  209  A    between atoms: _493  and  _494
REMARK  210  A    between atoms: _493  and  _496
REMARK  211  A    between atoms: _496  and  _497
REMARK  212  A    between atoms: _503  and  _505
REMARK  213  A    between atoms: _505  and  _506
REMARK  214  A    between atoms: _505  and  _508
REMARK  215  A    between atoms: _508  and  _509
REMARK  216  A    between atoms: _512  and  _514
REMARK  217  A    between atoms: _514  and  _515
REMARK  218  A    between atoms: _514  and  _517
REMARK  219  A    between atoms: _519  and  _521
REMARK  220  A    between atoms: _521  and  _522
REMARK  221  A    between atoms: _521  and  _524
REMARK  222  A    between atoms: _524  and  _525
REMARK  223  A    between atoms: _531  and  _533
REMARK  224  A    between atoms: _533  and  _534
REMARK  225  A    between atoms: _533  and  _536
REMARK  226  A    between atoms: _536  and  _537
REMARK  227  A    between atoms: _537  and  _538
REMARK  228  A    between atoms: _541  and  _543
REMARK  229  A    between atoms: _543  and  _544
REMARK  230  A    between atoms: _543  and  _546
REMARK  231  A    between atoms: _546  and  _547
REMARK  232  A    between atoms: _550  and  _552
REMARK  233  A    between atoms: _552  and  _553
REMARK  234  A    between atoms: _552  and  _555
REMARK  235  A    between atoms: _555  and  _556
REMARK  236  A    between atoms: _556  and  _557
REMARK  237  A    between atoms: _557  and  _558
REMARK  238  A    between atoms: _567  and  _569
REMARK  239  A    between atoms: _569  and  _570
REMARK  240  A    between atoms: _569  and  _572
REMARK  241  A    between atoms: _572  and  _573
REMARK  242  A    between atoms: _576  and  _578
REMARK  243  A    between atoms: _578  and  _579
REMARK  244  A    between atoms: _578  and  _581
REMARK  245  A    between atoms: _581  and  _582
REMARK  246  A    between atoms: _588  and  _590
REMARK  247  A    between atoms: _590  and  _591
REMARK  248  A    between atoms: _590  and  _593
REMARK  249  A    between atoms: _596  and  _598
REMARK  250  A    between atoms: _598  and  _599
REMARK  251  A    between atoms: _603  and  _604
REMARK  252  A    between atoms: _609  and  _611
REMARK  253  A    between atoms: _611  and  _612
REMARK  254  A    between atoms: _611  and  _614
REMARK  255  A    between atoms: _614  and  _615
REMARK  256  A    between atoms: _618  and  _620
REMARK  257  A    between atoms: _620  and  _621
REMARK  258  A    between atoms: _620  and  _623
REMARK  259  A    between atoms: _623  and  _624
REMARK  260  A    between atoms: _631  and  _632
REMARK  261  A    between atoms: _637  and  _639
REMARK  262  A    between atoms: _639  and  _640
REMARK  263  A    between atoms: _639  and  _642
REMARK  264  A    between atoms: _645  and  _647
REMARK  265  A    between atoms: _647  and  _648
REMARK  266  A    between atoms: _651  and  _653
REMARK  267  A    between atoms: _653  and  _654
REMARK  268  A    between atoms: _653  and  _656
REMARK  269  A    between atoms: _656  and  _657
REMARK  270  A    between atoms: _662  and  _663
REMARK  271  A    between atoms: _665  and  _667
REMARK  272  A    between atoms: _667  and  _668
REMARK  273  A    between atoms: _667  and  _670
REMARK  274  A    between atoms: _670  and  _671
REMARK  275  A    between atoms: _676  and  _678
REMARK  276  A    between atoms: _678  and  _679
REMARK  277  A    between atoms: _678  and  _681
REMARK  278  A    between atoms: _681  and  _682
REMARK  279  A    between atoms: _685  and  _687
REMARK  280  A    between atoms: _687  and  _688
REMARK  281  A    between atoms: _687  and  _690
REMARK  282  A    between atoms: _690  and  _691
REMARK  283  A    between atoms: _694  and  _696
REMARK  284  A    between atoms: _696  and  _697
REMARK  285  A    between atoms: _696  and  _699
REMARK  286  A    between atoms: _699  and  _700
REMARK  287  A    between atoms: _700  and  _701
REMARK  288  A    between atoms: _701  and  _702
REMARK  289  A    between atoms: _702  and  _703
REMARK  290  A    between atoms: _707  and  _709
REMARK  291  A    between atoms: _709  and  _710
REMARK  292  A    between atoms: _709  and  _712
REMARK  293  A    between atoms: _712  and  _713
REMARK  294  A    between atoms: _719  and  _721
REMARK  295  A    between atoms: _721  and  _722
REMARK  296  A    between atoms: _721  and  _724
REMARK  297  A    between atoms: _724  and  _725
REMARK  298  A    between atoms: _728  and  _730
REMARK  299  A    between atoms: _730  and  _731
REMARK  300  A    between atoms: _730  and  _733
REMARK  301  A    between atoms: _733  and  _734
REMARK  302  A    between atoms: _736  and  _738
REMARK  303  A    between atoms: _738  and  _739
REMARK  304  A    between atoms: _738  and  _741
REMARK  305  A    between atoms: _741  and  _742
REMARK  306  A    between atoms: _745  and  _747
REMARK  307  A    between atoms: _747  and  _748
REMARK  308  A    between atoms: _747  and  _750
REMARK  309  A    between atoms: _750  and  _751
REMARK  310  A    between atoms: _751  and  _752
REMARK  311  A    between atoms: _752  and  _753
REMARK  312  A    between atoms: _762  and  _764
REMARK  313  A    between atoms: _764  and  _765
REMARK  314  A    between atoms: _764  and  _767
REMARK  315  A    between atoms: _767  and  _768
REMARK  316  A    between atoms: _771  and  _773
REMARK  317  A    between atoms: _773  and  _774
REMARK  318  A    between atoms: _773  and  _776
REMARK  319  A    between atoms: _776  and  _777
REMARK  320  A    between atoms: _777  and  _778
REMARK  321  A    between atoms: _780  and  _782
REMARK  322  A    between atoms: _782  and  _783
REMARK  323  A    between atoms: _782  and  _785
REMARK  324  A    between atoms: _788  and  _790
REMARK  325  A    between atoms: _790  and  _791
REMARK  326  A    between atoms: _790  and  _793
REMARK  327  A    between atoms: _793  and  _794
REMARK                            x       y       z     vdW  Elec       q    Type
REMARK                         _______ _______ _______ _____ _____    ______ ____
ROOT
ATOM      1  CA  LEU A   2      89.663  -5.346   5.867  0.00  0.00    +0.149 C 
ENDROOT
BRANCH   1   2
ATOM      2  C   LEU A   2      91.170  -5.552   5.966  0.00  0.00    +0.241 C 
ATOM      3  O   LEU A   2      91.685  -5.829   7.046  0.00  0.00    -0.273 OA
ATOM      4  N   PHE A   3      91.852  -5.439   4.834  0.00  0.00    -0.297 N 
ATOM      5  H   PHE A   3      91.340  -5.189   3.964  0.00  0.00    +0.150 HD
BRANCH   4   6
ATOM      6  CA  PHE A   3      93.289  -5.652   4.764  0.00  0.00    +0.153 C 
BRANCH   6   7
ATOM      7  C   PHE A   3      93.953  -4.298   4.614  0.00  0.00    +0.241 C 
ATOM      8  N   VAL A   4      94.744  -3.925   5.611  0.00  0.00    -0.298 N 
ATOM      9  H   VAL A   4      94.814  -4.523   6.459  0.00  0.00    +0.150 HD
ATOM     10  O   PHE A   3      93.778  -3.618   3.599  0.00  0.00    -0.273 OA
BRANCH   8  11
ATOM     11  CA  VAL A   4      95.514  -2.695   5.539  0.00  0.00    +0.137 C 
BRANCH  11  12
ATOM     12  CB  VAL A   4      95.785  -2.107   6.942  0.00  0.00    +0.026 C 
ATOM     13  CG2 VAL A   4      94.494  -1.807   7.672  0.00  0.00    +0.002 C 
ATOM     14  CG1 VAL A   4      96.629  -0.848   6.847  0.00  0.00    +0.002 C 
ENDBRANCH  11  12
BRANCH  11  15
ATOM     15  C   VAL A   4      96.826  -3.048   4.860  0.00  0.00    +0.227 C 
ATOM     16  O   VAL A   4      97.559  -3.901   5.351  0.00  0.00    -0.286 OA
ENDBRANCH  11  15
ENDBRANCH   8  11
ENDBRANCH   6   7
BRANCH   6  17
ATOM     17  CB  PHE A   3      93.665  -6.542   3.572  0.00  0.00    +0.055 C 
BRANCH  17  18
ATOM     18  CG  PHE A   3      93.158  -7.956   3.673  0.00  0.00    -0.020 A 
ATOM     19  CD2 PHE A   3      93.742  -8.846   4.558  0.00  0.00    -0.004 A 
ATOM     20  CE2 PHE A   3      93.282 -10.143   4.670  0.00  0.00    -0.000 A 
ATOM     21  CZ  PHE A   3      92.244 -10.562   3.880  0.00  0.00    -0.000 A 
ATOM     22  CE1 PHE A   3      91.653  -9.699   2.980  0.00  0.00    -0.000 A 
ATOM     23  CD1 PHE A   3      92.111  -8.379   2.885  0.00  0.00    -0.004 A 
ENDBRANCH  17  18
ENDBRANCH   6  17
ENDBRANCH   4   6
ENDBRANCH   1   2
BRANCH   1  25
ATOM     24  C   ARG A   1      88.115  -7.203   5.658  0.00  0.00    +0.238 C 
ATOM     25  N   LEU A   2      89.018  -6.540   6.381  0.00  0.00    -0.297 N 
ATOM     26  H   LEU A   2      89.265  -6.885   7.331  0.00  0.00    +0.150 HD
ATOM     27  O   ARG A   1      87.703  -6.827   4.581  0.00  0.00    -0.274 OA
BRANCH  24  28
ATOM     28  CA  ARG A   1      87.608  -8.498   6.240  0.00  0.00    +0.145 C 
BRANCH  28  29
ATOM     29  N   ARG A   1      86.209  -8.657   5.889  0.00  0.00    -0.238 NA
ATOM     30  H   ARG A   1      85.818  -8.114   5.093  0.00  0.00    +0.142 HD
ENDBRANCH  28  29
BRANCH  28  31
ATOM     31  CB  ARG A   1      88.414  -9.665   5.670  0.00  0.00    +0.030 C 
BRANCH  31  32
ATOM     32  CG  ARG A   1      89.808  -9.834   6.260  0.00  0.00    +0.045 C 
BRANCH  32  33
ATOM     33  CD  ARG A   1      89.764 -10.290   7.684  0.00  0.00    +0.174 C 
BRANCH  33  34
ATOM     34  NE  ARG A   1      89.061 -11.555   7.850  0.00  0.00    -0.265 N 
ATOM     35  HE  ARG A   1      88.061 -11.519   8.135  0.00  0.00    +0.259 HD
ATOM     36  CZ  ARG A   1      89.608 -12.750   7.663  0.00  0.00    +0.342 C 
ATOM     37  NH2 ARG A   1      88.874 -13.840   7.848  0.00  0.00    -0.292 N 
ATOM     38 HH21 ARG A   1      87.879 -13.754   8.137  0.00  0.00    +0.255 HD
ATOM     39 HH22 ARG A   1      89.294 -14.780   7.704  0.00  0.00    +0.255 HD
ATOM     40  NH1 ARG A   1      90.880 -12.860   7.281  0.00  0.00    -0.292 N 
ATOM     41 HH11 ARG A   1      91.300 -13.800   7.137  0.00  0.00    +0.255 HD
ATOM     42 HH12 ARG A   1      91.452 -12.005   7.127  0.00  0.00    +0.255 HD
ENDBRANCH  33  34
ENDBRANCH  32  33
ENDBRANCH  31  32
ENDBRANCH  28  31
ENDBRANCH  24  28
ENDBRANCH   1  25
BRANCH   1  43
ATOM     43  CB  LEU A   2      89.220  -4.107   6.648  0.00  0.00    +0.029 C 
BRANCH  43  44
ATOM     44  CG  LEU A   2      89.752  -2.748   6.184  0.00  0.00    +0.002 C 
ATOM     45  CD2 LEU A   2      91.143  -2.476   6.751  0.00  0.00    +0.000 C 
ATOM     46  CD1 LEU A   2      88.803  -1.659   6.570  0.00  0.00    +0.000 C 
ENDBRANCH  43  44
ENDBRANCH   1  43
TORSDOF 17
REMARK  Name = ../refined-set-2016/4omj/4omj_pocket.pdb
REMARK  327 active torsions:
REMARK  status: ('A' for Active; 'I' for Inactive)
REMARK    1  A    between atoms: _1  and  _3
REMARK    2  A    between atoms: _3  and  _4
REMARK    3  A    between atoms: _3  and  _6
REMARK    4  A    between atoms: _6  and  _7
REMARK    5  A    between atoms: _10  and  _12
REMARK    6  A    between atoms: _12  and  _13
REMARK    7  A    between atoms: _12  and  _15
REMARK    8  A    between atoms: _15  and  _16
REMARK    9  A    between atoms: _21  and  _22
REMARK   10  A    between atoms: _24  and  _26
REMARK   11  A    between atoms: _26  and  _27
REMARK   12  A    between atoms: _26  and  _29
REMARK   13  A    between atoms: _29  and  _30
REMARK   14  A    between atoms: _33  and  _35
REMARK   15  A    between atoms: _35  and  _36
REMARK   16  A    between atoms: _35  and  _38
REMARK   17  A    between atoms: _38  and  _39
REMARK   18  A    between atoms: _41  and  _43
REMARK   19  A    between atoms: _43  and  _44
REMARK   20  A    between atoms: _43  and  _46
REMARK   21  A    between atoms: _46  and  _47
REMARK   22  A    between atoms: _57  and  _59
REMARK   23  A    between atoms: _59  and  _60
REMARK   24  A    between atoms: _59  and  _62
REMARK   25  A    between atoms: _62  and  _63
REMARK   26  A    between atoms: _66  and  _68
REMARK   27  A    between atoms: _68  and  _69
REMARK   28  A    between atoms: _68  and  _71
REMARK   29  A    between atoms: _71  and  _72
REMARK   30  A    between atoms: _75  and  _77
REMARK   31  A    between atoms: _77  and  _78
REMARK   32  A    between atoms: _77  and  _80
REMARK   33  A    between atoms: _80  and  _81
REMARK   34  A    between atoms: _84  and  _86
REMARK   35  A    between atoms: _86  and  _87
REMARK   36  A    between atoms: _89  and  _91
REMARK   37  A    between atoms: _91  and  _92
REMARK   38  A    between atoms: _91  and  _94
REMARK   39  A    between atoms: _94  and  _95
REMARK   40  A    between atoms: _98  and  _100
REMARK   41  A    between atoms: _100  and  _101
REMARK   42  A    between atoms: _100  and  _103
REMARK   43  A    between atoms: _103  and  _104
REMARK   44  A    between atoms: _107  and  _109
REMARK   45  A    between atoms: _109  and  _110
REMARK   46  A    between atoms: _113  and  _115
REMARK   47  A    between atoms: _115  and  _116
REMARK   48  A    between atoms: _115  and  _118
REMARK   49  A    between atoms: _118  and  _119
REMARK   50  A    between atoms: _119  and  _120
REMARK   51  A    between atoms: _120  and  _121
REMARK   52  A    between atoms: _121  and  _122
REMARK   53  A    between atoms: _126  and  _128
REMARK   54  A    between atoms: _128  and  _129
REMARK   55  A    between atoms: _131  and  _133
REMARK   56  A    between atoms: _133  and  _134
REMARK   57  A    between atoms: _133  and  _136
REMARK   58  A    between atoms: _136  and  _137
REMARK   59  A    between atoms: _140  and  _142
REMARK   60  A    between atoms: _142  and  _143
REMARK   61  A    between atoms: _142  and  _145
REMARK   62  A    between atoms: _145  and  _146
REMARK   63  A    between atoms: _149  and  _151
REMARK   64  A    between atoms: _151  and  _152
REMARK   65  A    between atoms: _151  and  _154
REMARK   66  A    between atoms: _154  and  _155
REMARK   67  A    between atoms: _161  and  _163
REMARK   68  A    between atoms: _163  and  _164
REMARK   69  A    between atoms: _167  and  _169
REMARK   70  A    between atoms: _169  and  _170
REMARK   71  A    between atoms: _169  and  _172
REMARK   72  A    between atoms: _172  and  _173
REMARK   73  A    between atoms: _175  and  _177
REMARK   74  A    between atoms: _177  and  _178
REMARK   75  A    between atoms: _177  and  _180
REMARK   76  A    between atoms: _180  and  _181
REMARK   77  A    between atoms: _181  and  _182
REMARK   78  A    between atoms: _182  and  _183
REMARK   79  A    between atoms: _183  and  _184
REMARK   80  A    between atoms: _188  and  _190
REMARK   81  A    between atoms: _190  and  _191
REMARK   82  A    between atoms: _190  and  _193
REMARK   83  A    between atoms: _193  and  _194
REMARK   84  A    between atoms: _194  and  _195
REMARK   85  A    between atoms: _200  and  _202
REMARK   86  A    between atoms: _202  and  _203
REMARK   87  A    between atoms: _202  and  _205
REMARK   88  A    between atoms: _205  and  _206
REMARK   89  A    between atoms: _209  and  _211
REMARK   90  A    between atoms: _211  and  _212
REMARK   91  A    between atoms: _211  and  _214
REMARK   92  A    between atoms: _214  and  _215
REMARK   93  A    between atoms: _218  and  _220
REMARK   94  A    between atoms: _220  and  _221
REMARK   95  A    between atoms: _220  and  _223
REMARK   96  A    between atoms: _223  and  _224
REMARK   97  A    between atoms: _227  and  _229
REMARK   98  A    between atoms: _229  and  _230
REMARK   99  A    between atoms: _229  and  _232
REMARK  100  A    between atoms: _232  and  _233
REMARK  101  A    between atoms: _233  and  _234
REMARK  102  A    between atoms: _234  and  _235
REMARK  103  A    between atoms: _244  and  _246
REMARK  104  A    between atoms: _246  and  _247
REMARK  105  A    between atoms: _246  and  _249
REMARK  106  A    between atoms: _249  and  _250
REMARK  107  A    between atoms: _253  and  _255
REMARK  108  A    between atoms: _255  and  _256
REMARK  109  A    between atoms: _255  and  _258
REMARK  110  A    between atoms: _258  and  _259
REMARK  111  A    between atoms: _259  and  _260
REMARK  112  A    between atoms: _260  and  _261
REMARK  113  A    between atoms: _261  and  _262
REMARK  114  A    between atoms: _266  and  _268
REMARK  115  A    between atoms: _268  and  _269
REMARK  116  A    between atoms: _268  and  _271
REMARK  117  A    between atoms: _271  and  _272
REMARK  118  A    between atoms: _272  and  _273
REMARK  119  A    between atoms: _275  and  _277
REMARK  120  A    between atoms: _277  and  _278
REMARK  121  A    between atoms: _277  and  _280
REMARK  122  A    between atoms: _280  and  _281
REMARK  123  A    between atoms: _281  and  _282
REMARK  124  A    between atoms: _285  and  _287
REMARK  125  A    between atoms: _287  and  _288
REMARK  126  A    between atoms: _287  and  _290
REMARK  127  A    between atoms: _292  and  _294
REMARK  128  A    between atoms: _294  and  _295
REMARK  129  A    between atoms: _294  and  _297
REMARK  130  A    between atoms: _297  and  _298
REMARK  131  A    between atoms: _301  and  _303
REMARK  132  A    between atoms: _303  and  _304
REMARK  133  A    between atoms: _303  and  _306
REMARK  134  A    between atoms: _306  and  _307
REMARK  135  A    between atoms: _310  and  _312
REMARK  136  A    between atoms: _312  and  _313
REMARK  137  A    between atoms: _312  and  _315
REMARK  138  A    between atoms: _315  and  _316
REMARK  139  A    between atoms: _319  and  _321
REMARK  140  A    between atoms: _321  and  _322
REMARK  141  A    between atoms: _321  and  _324
REMARK  142  A    between atoms: _324  and  _325
REMARK  143  A    between atoms: _330  and  _331
REMARK  144  A    between atoms: _333  and  _335
REMARK  145  A    between atoms: _335  and  _336
REMARK  146  A    between atoms: _335  and  _338
REMARK  147  A    between atoms: _338  and  _339
REMARK  148  A    between atoms: _342  and  _344
REMARK  149  A    between atoms: _344  and  _345
REMARK  150  A    between atoms: _344  and  _347
REMARK  151  A    between atoms: _349  and  _351
REMARK  152  A    between atoms: _351  and  _352
REMARK  153  A    between atoms: _351  and  _354
REMARK  154  A    between atoms: _354  and  _355
REMARK  155  A    between atoms: _358  and  _360
REMARK  156  A    between atoms: _360  and  _361
REMARK  157  A    between atoms: _363  and  _365
REMARK  158  A    between atoms: _365  and  _366
REMARK  159  A    between atoms: _365  and  _368
REMARK  160  A    between atoms: _368  and  _369
REMARK  161  A    between atoms: _369  and  _370
REMARK  162  A    between atoms: _370  and  _371
REMARK  163  A    between atoms: _371  and  _372
REMARK  164  A    between atoms: _376  and  _378
REMARK  165  A    between atoms: _378  and  _379
REMARK  166  A    between atoms: _378  and  _381
REMARK  167  A    between atoms: _381  and  _382
REMARK  168  A    between atoms: _387  and  _389
REMARK  169  A    between atoms: _389  and  _390
REMARK  170  A    between atoms: _389  and  _392
REMARK  171  A    between atoms: _392  and  _393
REMARK  172  A    between atoms: _396  and  _398
REMARK  173  A    between atoms: _398  and  _399
REMARK  174  A    between atoms: _398  and  _401
REMARK  175  A    between atoms: _401  and  _402
REMARK  176  A    between atoms: _412  and  _414
REMARK  177  A    between atoms: _414  and  _415
REMARK  178  A    between atoms: _414  and  _417
REMARK  179  A    between atoms: _417  and  _418
REMARK  180  A    between atoms: _418  and  _419
REMARK  181  A    between atoms: _419  and  _420
REMARK  182  A    between atoms: _420  and  _421
REMARK  183  A    between atoms: _426  and  _427
REMARK  184  A    between atoms: _432  and  _434
REMARK  185  A    between atoms: _434  and  _435
REMARK  186  A    between atoms: _438  and  _440
REMARK  187  A    between atoms: _440  and  _441
REMARK  188  A    between atoms: _440  and  _443
REMARK  189  A    between atoms: _446  and  _448
REMARK  190  A    between atoms: _448  and  _449
REMARK  191  A    between atoms: _448  and  _451
REMARK  192  A    between atoms: _451  and  _452
REMARK  193  A    between atoms: _452  and  _453
REMARK  194  A    between atoms: _456  and  _458
REMARK  195  A    between atoms: _458  and  _459
REMARK  196  A    between atoms: _462  and  _464
REMARK  197  A    between atoms: _464  and  _465
REMARK  198  A    between atoms: _464  and  _467
REMARK  199  A    between atoms: _467  and  _468
REMARK  200  A    between atoms: _473  and  _474
REMARK  201  A    between atoms: _476  and  _478
REMARK  202  A    between atoms: _478  and  _479
REMARK  203  A    between atoms: _481  and  _483
REMARK  204  A    between atoms: _483  and  _484
REMARK  205  A    between atoms: _483  and  _486
REMARK  206  A    between atoms: _486  and  _487
REMARK  207  A    between atoms: _487  and  _488
REMARK  208  A    between atoms: _491  and  _493
REMARK  209  A    between atoms: _493  and  _494
REMARK  210  A    between atoms: _493  and  _496
REMARK  211  A    between atoms: _496  and  _497
REMARK  212  A    between atoms: _503  and  _505
REMARK  213  A    between atoms: _505  and  _506
REMARK  214  A    between atoms: _505  and  _508
REMARK  215  A    between atoms: _508  and  _509
REMARK  216  A    between atoms: _512  and  _514
REMARK  217  A    between atoms: _514  and  _515
REMARK  218  A    between atoms: _514  and  _517
REMARK  219  A    between atoms: _519  and  _521
REMARK  220  A    between atoms: _521  and  _522
REMARK  221  A    between atoms: _521  and  _524
REMARK  222  A    between atoms: _524  and  _525
REMARK  223  A    between atoms: _531  and  _533
REMARK  224  A    between atoms: _533  and  _534
REMARK  225  A    between atoms: _533  and  _536
REMARK  226  A    between atoms: _536  and  _537
REMARK  227  A    between atoms: _537  and  _538
REMARK  228  A    between atoms: _541  and  _543
REMARK  229  A    between atoms: _543  and  _544
REMARK  230  A    between atoms: _543  and  _546
REMARK  231  A    between atoms: _546  and  _547
REMARK  232  A    between atoms: _550  and  _552
REMARK  233  A    between atoms: _552  and  _553
REMARK  234  A    between atoms: _552  and  _555
REMARK  235  A    between atoms: _555  and  _556
REMARK  236  A    between atoms: _556  and  _557
REMARK  237  A    between atoms: _557  and  _558
REMARK  238  A    between atoms: _567  and  _569
REMARK  239  A    between atoms: _569  and  _570
REMARK  240  A    between atoms: _569  and  _572
REMARK  241  A    between atoms: _572  and  _573
REMARK  242  A    between atoms: _576  and  _578
REMARK  243  A    between atoms: _578  and  _579
REMARK  244  A    between atoms: _578  and  _581
REMARK  245  A    between atoms: _581  and  _582
REMARK  246  A    between atoms: _588  and  _590
REMARK  247  A    between atoms: _590  and  _591
REMARK  248  A    between atoms: _590  and  _593
REMARK  249  A    between atoms: _596  and  _598
REMARK  250  A    between atoms: _598  and  _599
REMARK  251  A    between atoms: _603  and  _604
REMARK  252  A    between atoms: _609  and  _611
REMARK  253  A    between atoms: _611  and  _612
REMARK  254  A    between atoms: _611  and  _614
REMARK  255  A    between atoms: _614  and  _615
REMARK  256  A    between atoms: _618  and  _620
REMARK  257  A    between atoms: _620  and  _621
REMARK  258  A    between atoms: _620  and  _623
REMARK  259  A    between atoms: _623  and  _624
REMARK  260  A    between atoms: _631  and  _632
REMARK  261  A    between atoms: _637  and  _639
REMARK  262  A    between atoms: _639  and  _640
REMARK  263  A    between atoms: _639  and  _642
REMARK  264  A    between atoms: _645  and  _647
REMARK  265  A    between atoms: _647  and  _648
REMARK  266  A    between atoms: _651  and  _653
REMARK  267  A    between atoms: _653  and  _654
REMARK  268  A    between atoms: _653  and  _656
REMARK  269  A    between atoms: _656  and  _657
REMARK  270  A    between atoms: _662  and  _663
REMARK  271  A    between atoms: _665  and  _667
REMARK  272  A    between atoms: _667  and  _668
REMARK  273  A    between atoms: _667  and  _670
REMARK  274  A    between atoms: _670  and  _671
REMARK  275  A    between atoms: _676  and  _678
REMARK  276  A    between atoms: _678  and  _679
REMARK  277  A    between atoms: _678  and  _681
REMARK  278  A    between atoms: _681  and  _682
REMARK  279  A    between atoms: _685  and  _687
REMARK  280  A    between atoms: _687  and  _688
REMARK  281  A    between atoms: _687  and  _690
REMARK  282  A    between atoms: _690  and  _691
REMARK  283  A    between atoms: _694  and  _696
REMARK  284  A    between atoms: _696  and  _697
REMARK  285  A    between atoms: _696  and  _699
REMARK  286  A    between atoms: _699  and  _700
REMARK  287  A    between atoms: _700  and  _701
REMARK  288  A    between atoms: _701  and  _702
REMARK  289  A    between atoms: _702  and  _703
REMARK  290  A    between atoms: _707  and  _709
REMARK  291  A    between atoms: _709  and  _710
REMARK  292  A    between atoms: _709  and  _712
REMARK  293  A    between atoms: _712  and  _713
REMARK  294  A    between atoms: _719  and  _721
REMARK  295  A    between atoms: _721  and  _722
REMARK  296  A    between atoms: _721  and  _724
REMARK  297  A    between atoms: _724  and  _725
REMARK  298  A    between atoms: _728  and  _730
REMARK  299  A    between atoms: _730  and  _731
REMARK  300  A    between atoms: _730  and  _733
REMARK  301  A    between atoms: _733  and  _734
REMARK  302  A    between atoms: _736  and  _738
REMARK  303  A    between atoms: _738  and  _739
REMARK  304  A    between atoms: _738  and  _741
REMARK  305  A    between atoms: _741  and  _742
REMARK  306  A    between atoms: _745  and  _747
REMARK  307  A    between atoms: _747  and  _748
REMARK  308  A    between atoms: _747  and  _750
REMARK  309  A    between atoms: _750  and  _751
REMARK  310  A    between atoms: _751  and  _752
REMARK  311  A    between atoms: _752  and  _753
REMARK  312  A    between atoms: _762  and  _764
REMARK  313  A    between atoms: _764  and  _765
REMARK  314  A    between atoms: _764  and  _767
REMARK  315  A    between atoms: _767  and  _768
REMARK  316  A    between atoms: _771  and  _773
REMARK  317  A    between atoms: _773  and  _774
REMARK  318  A    between atoms: _773  and  _776
REMARK  319  A    between atoms: _776  and  _777
REMARK  320  A    between atoms: _777  and  _778
REMARK  321  A    between atoms: _780  and  _782
REMARK  322  A    between atoms: _782  and  _783
REMARK  323  A    between atoms: _782  and  _785
REMARK  324  A    between atoms: _788  and  _790
REMARK  325  A    between atoms: _790  and  _791
REMARK  326  A    between atoms: _790  and  _793
REMARK  327  A    between atoms: _793  and  _794
REMARK                            x       y       z     vdW  Elec       q    Type
REMARK                         _______ _______ _______ _____ _____    ______ ____
ROOT
ATOM      1  C   ALA A   1     102.264   1.664   6.580  0.00  0.00    +0.241 C 
ATOM      2  O   ALA A   1     103.181   0.861   6.775  0.00  0.00    -0.273 OA
ATOM      3  N   PRO A   2     102.402   2.985   6.698  0.00  0.00    -0.273 N 
ATOM      4  CA  PRO A   2     103.678   3.539   7.167  0.00  0.00    +0.140 C 
ATOM      5  CB  PRO A   2     103.667   4.938   6.586  0.00  0.00    +0.030 C 
ATOM      6  CG  PRO A   2     102.204   5.332   6.644  0.00  0.00    +0.024 C 
ATOM      7  CD  PRO A   2     101.465   4.052   6.295  0.00  0.00    +0.094 C 
ENDROOT
BRANCH   1   8
ATOM      8  CA  ALA A   1     100.891   1.148   6.188  0.00  0.00    +0.145 C 
ATOM      9  CB  ALA A   1     100.286   0.486   7.362  0.00  0.00    +0.028 C 
BRANCH   8  10
ATOM     10  N   ALA A   1     101.011   0.210   5.074  0.00  0.00    -0.238 NA
ATOM     11  H   ALA A   1     100.765  -0.789   5.225  0.00  0.00    +0.142 HD
ENDBRANCH   8  10
ENDBRANCH   1   8
BRANCH   4  12
ATOM     12  C   PRO A   2     103.728   3.611   8.683  0.00  0.00    +0.227 C 
ATOM     13  O   PRO A   2     102.806   3.213   9.381  0.00  0.00    -0.286 OA
ENDBRANCH   4  12
TORSDOF 3
REMARK  Name = ../refined-set-2016/4omj/4omj_pocket.pdb
REMARK  327 active torsions:
REMARK  status: ('A' for Active; 'I' for Inactive)
REMARK    1  A    between atoms: _1  and  _3
REMARK    2  A    between atoms: _3  and  _4
REMARK    3  A    between atoms: _3  and  _6
REMARK    4  A    between atoms: _6  and  _7
REMARK    5  A    between atoms: _10  and  _12
REMARK    6  A    between atoms: _12  and  _13
REMARK    7  A    between atoms: _12  and  _15
REMARK    8  A    between atoms: _15  and  _16
REMARK    9  A    between atoms: _21  and  _22
REMARK   10  A    between atoms: _24  and  _26
REMARK   11  A    between atoms: _26  and  _27
REMARK   12  A    between atoms: _26  and  _29
REMARK   13  A    between atoms: _29  and  _30
REMARK   14  A    between atoms: _33  and  _35
REMARK   15  A    between atoms: _35  and  _36
REMARK   16  A    between atoms: _35  and  _38
REMARK   17  A    between atoms: _38  and  _39
REMARK   18  A    between atoms: _41  and  _43
REMARK   19  A    between atoms: _43  and  _44
REMARK   20  A    between atoms: _43  and  _46
REMARK   21  A    between atoms: _46  and  _47
REMARK   22  A    between atoms: _57  and  _59
REMARK   23  A    between atoms: _59  and  _60
REMARK   24  A    between atoms: _59  and  _62
REMARK   25  A    between atoms: _62  and  _63
REMARK   26  A    between atoms: _66  and  _68
REMARK   27  A    between atoms: _68  and  _69
REMARK   28  A    between atoms: _68  and  _71
REMARK   29  A    between atoms: _71  and  _72
REMARK   30  A    between atoms: _75  and  _77
REMARK   31  A    between atoms: _77  and  _78
REMARK   32  A    between atoms: _77  and  _80
REMARK   33  A    between atoms: _80  and  _81
REMARK   34  A    between atoms: _84  and  _86
REMARK   35  A    between atoms: _86  and  _87
REMARK   36  A    between atoms: _89  and  _91
REMARK   37  A    between atoms: _91  and  _92
REMARK   38  A    between atoms: _91  and  _94
REMARK   39  A    between atoms: _94  and  _95
REMARK   40  A    between atoms: _98  and  _100
REMARK   41  A    between atoms: _100  and  _101
REMARK   42  A    between atoms: _100  and  _103
REMARK   43  A    between atoms: _103  and  _104
REMARK   44  A    between atoms: _107  and  _109
REMARK   45  A    between atoms: _109  and  _110
REMARK   46  A    between atoms: _113  and  _115
REMARK   47  A    between atoms: _115  and  _116
REMARK   48  A    between atoms: _115  and  _118
REMARK   49  A    between atoms: _118  and  _119
REMARK   50  A    between atoms: _119  and  _120
REMARK   51  A    between atoms: _120  and  _121
REMARK   52  A    between atoms: _121  and  _122
REMARK   53  A    between atoms: _126  and  _128
REMARK   54  A    between atoms: _128  and  _129
REMARK   55  A    between atoms: _131  and  _133
REMARK   56  A    between atoms: _133  and  _134
REMARK   57  A    between atoms: _133  and  _136
REMARK   58  A    between atoms: _136  and  _137
REMARK   59  A    between atoms: _140  and  _142
REMARK   60  A    between atoms: _142  and  _143
REMARK   61  A    between atoms: _142  and  _145
REMARK   62  A    between atoms: _145  and  _146
REMARK   63  A    between atoms: _149  and  _151
REMARK   64  A    between atoms: _151  and  _152
REMARK   65  A    between atoms: _151  and  _154
REMARK   66  A    between atoms: _154  and  _155
REMARK   67  A    between atoms: _161  and  _163
REMARK   68  A    between atoms: _163  and  _164
REMARK   69  A    between atoms: _167  and  _169
REMARK   70  A    between atoms: _169  and  _170
REMARK   71  A    between atoms: _169  and  _172
REMARK   72  A    between atoms: _172  and  _173
REMARK   73  A    between atoms: _175  and  _177
REMARK   74  A    between atoms: _177  and  _178
REMARK   75  A    between atoms: _177  and  _180
REMARK   76  A    between atoms: _180  and  _181
REMARK   77  A    between atoms: _181  and  _182
REMARK   78  A    between atoms: _182  and  _183
REMARK   79  A    between atoms: _183  and  _184
REMARK   80  A    between atoms: _188  and  _190
REMARK   81  A    between atoms: _190  and  _191
REMARK   82  A    between atoms: _190  and  _193
REMARK   83  A    between atoms: _193  and  _194
REMARK   84  A    between atoms: _194  and  _195
REMARK   85  A    between atoms: _200  and  _202
REMARK   86  A    between atoms: _202  and  _203
REMARK   87  A    between atoms: _202  and  _205
REMARK   88  A    between atoms: _205  and  _206
REMARK   89  A    between atoms: _209  and  _211
REMARK   90  A    between atoms: _211  and  _212
REMARK   91  A    between atoms: _211  and  _214
REMARK   92  A    between atoms: _214  and  _215
REMARK   93  A    between atoms: _218  and  _220
REMARK   94  A    between atoms: _220  and  _221
REMARK   95  A    between atoms: _220  and  _223
REMARK   96  A    between atoms: _223  and  _224
REMARK   97  A    between atoms: _227  and  _229
REMARK   98  A    between atoms: _229  and  _230
REMARK   99  A    between atoms: _229  and  _232
REMARK  100  A    between atoms: _232  and  _233
REMARK  101  A    between atoms: _233  and  _234
REMARK  102  A    between atoms: _234  and  _235
REMARK  103  A    between atoms: _244  and  _246
REMARK  104  A    between atoms: _246  and  _247
REMARK  105  A    between atoms: _246  and  _249
REMARK  106  A    between atoms: _249  and  _250
REMARK  107  A    between atoms: _253  and  _255
REMARK  108  A    between atoms: _255  and  _256
REMARK  109  A    between atoms: _255  and  _258
REMARK  110  A    between atoms: _258  and  _259
REMARK  111  A    between atoms: _259  and  _260
REMARK  112  A    between atoms: _260  and  _261
REMARK  113  A    between atoms: _261  and  _262
REMARK  114  A    between atoms: _266  and  _268
REMARK  115  A    between atoms: _268  and  _269
REMARK  116  A    between atoms: _268  and  _271
REMARK  117  A    between atoms: _271  and  _272
REMARK  118  A    between atoms: _272  and  _273
REMARK  119  A    between atoms: _275  and  _277
REMARK  120  A    between atoms: _277  and  _278
REMARK  121  A    between atoms: _277  and  _280
REMARK  122  A    between atoms: _280  and  _281
REMARK  123  A    between atoms: _281  and  _282
REMARK  124  A    between atoms: _285  and  _287
REMARK  125  A    between atoms: _287  and  _288
REMARK  126  A    between atoms: _287  and  _290
REMARK  127  A    between atoms: _292  and  _294
REMARK  128  A    between atoms: _294  and  _295
REMARK  129  A    between atoms: _294  and  _297
REMARK  130  A    between atoms: _297  and  _298
REMARK  131  A    between atoms: _301  and  _303
REMARK  132  A    between atoms: _303  and  _304
REMARK  133  A    between atoms: _303  and  _306
REMARK  134  A    between atoms: _306  and  _307
REMARK  135  A    between atoms: _310  and  _312
REMARK  136  A    between atoms: _312  and  _313
REMARK  137  A    between atoms: _312  and  _315
REMARK  138  A    between atoms: _315  and  _316
REMARK  139  A    between atoms: _319  and  _321
REMARK  140  A    between atoms: _321  and  _322
REMARK  141  A    between atoms: _321  and  _324
REMARK  142  A    between atoms: _324  and  _325
REMARK  143  A    between atoms: _330  and  _331
REMARK  144  A    between atoms: _333  and  _335
REMARK  145  A    between atoms: _335  and  _336
REMARK  146  A    between atoms: _335  and  _338
REMARK  147  A    between atoms: _338  and  _339
REMARK  148  A    between atoms: _342  and  _344
REMARK  149  A    between atoms: _344  and  _345
REMARK  150  A    between atoms: _344  and  _347
REMARK  151  A    between atoms: _349  and  _351
REMARK  152  A    between atoms: _351  and  _352
REMARK  153  A    between atoms: _351  and  _354
REMARK  154  A    between atoms: _354  and  _355
REMARK  155  A    between atoms: _358  and  _360
REMARK  156  A    between atoms: _360  and  _361
REMARK  157  A    between atoms: _363  and  _365
REMARK  158  A    between atoms: _365  and  _366
REMARK  159  A    between atoms: _365  and  _368
REMARK  160  A    between atoms: _368  and  _369
REMARK  161  A    between atoms: _369  and  _370
REMARK  162  A    between atoms: _370  and  _371
REMARK  163  A    between atoms: _371  and  _372
REMARK  164  A    between atoms: _376  and  _378
REMARK  165  A    between atoms: _378  and  _379
REMARK  166  A    between atoms: _378  and  _381
REMARK  167  A    between atoms: _381  and  _382
REMARK  168  A    between atoms: _387  and  _389
REMARK  169  A    between atoms: _389  and  _390
REMARK  170  A    between atoms: _389  and  _392
REMARK  171  A    between atoms: _392  and  _393
REMARK  172  A    between atoms: _396  and  _398
REMARK  173  A    between atoms: _398  and  _399
REMARK  174  A    between atoms: _398  and  _401
REMARK  175  A    between atoms: _401  and  _402
REMARK  176  A    between atoms: _412  and  _414
REMARK  177  A    between atoms: _414  and  _415
REMARK  178  A    between atoms: _414  and  _417
REMARK  179  A    between atoms: _417  and  _418
REMARK  180  A    between atoms: _418  and  _419
REMARK  181  A    between atoms: _419  and  _420
REMARK  182  A    between atoms: _420  and  _421
REMARK  183  A    between atoms: _426  and  _427
REMARK  184  A    between atoms: _432  and  _434
REMARK  185  A    between atoms: _434  and  _435
REMARK  186  A    between atoms: _438  and  _440
REMARK  187  A    between atoms: _440  and  _441
REMARK  188  A    between atoms: _440  and  _443
REMARK  189  A    between atoms: _446  and  _448
REMARK  190  A    between atoms: _448  and  _449
REMARK  191  A    between atoms: _448  and  _451
REMARK  192  A    between atoms: _451  and  _452
REMARK  193  A    between atoms: _452  and  _453
REMARK  194  A    between atoms: _456  and  _458
REMARK  195  A    between atoms: _458  and  _459
REMARK  196  A    between atoms: _462  and  _464
REMARK  197  A    between atoms: _464  and  _465
REMARK  198  A    between atoms: _464  and  _467
REMARK  199  A    between atoms: _467  and  _468
REMARK  200  A    between atoms: _473  and  _474
REMARK  201  A    between atoms: _476  and  _478
REMARK  202  A    between atoms: _478  and  _479
REMARK  203  A    between atoms: _481  and  _483
REMARK  204  A    between atoms: _483  and  _484
REMARK  205  A    between atoms: _483  and  _486
REMARK  206  A    between atoms: _486  and  _487
REMARK  207  A    between atoms: _487  and  _488
REMARK  208  A    between atoms: _491  and  _493
REMARK  209  A    between atoms: _493  and  _494
REMARK  210  A    between atoms: _493  and  _496
REMARK  211  A    between atoms: _496  and  _497
REMARK  212  A    between atoms: _503  and  _505
REMARK  213  A    between atoms: _505  and  _506
REMARK  214  A    between atoms: _505  and  _508
REMARK  215  A    between atoms: _508  and  _509
REMARK  216  A    between atoms: _512  and  _514
REMARK  217  A    between atoms: _514  and  _515
REMARK  218  A    between atoms: _514  and  _517
REMARK  219  A    between atoms: _519  and  _521
REMARK  220  A    between atoms: _521  and  _522
REMARK  221  A    between atoms: _521  and  _524
REMARK  222  A    between atoms: _524  and  _525
REMARK  223  A    between atoms: _531  and  _533
REMARK  224  A    between atoms: _533  and  _534
REMARK  225  A    between atoms: _533  and  _536
REMARK  226  A    between atoms: _536  and  _537
REMARK  227  A    between atoms: _537  and  _538
REMARK  228  A    between atoms: _541  and  _543
REMARK  229  A    between atoms: _543  and  _544
REMARK  230  A    between atoms: _543  and  _546
REMARK  231  A    between atoms: _546  and  _547
REMARK  232  A    between atoms: _550  and  _552
REMARK  233  A    between atoms: _552  and  _553
REMARK  234  A    between atoms: _552  and  _555
REMARK  235  A    between atoms: _555  and  _556
REMARK  236  A    between atoms: _556  and  _557
REMARK  237  A    between atoms: _557  and  _558
REMARK  238  A    between atoms: _567  and  _569
REMARK  239  A    between atoms: _569  and  _570
REMARK  240  A    between atoms: _569  and  _572
REMARK  241  A    between atoms: _572  and  _573
REMARK  242  A    between atoms: _576  and  _578
REMARK  243  A    between atoms: _578  and  _579
REMARK  244  A    between atoms: _578  and  _581
REMARK  245  A    between atoms: _581  and  _582
REMARK  246  A    between atoms: _588  and  _590
REMARK  247  A    between atoms: _590  and  _591
REMARK  248  A    between atoms: _590  and  _593
REMARK  249  A    between atoms: _596  and  _598
REMARK  250  A    between atoms: _598  and  _599
REMARK  251  A    between atoms: _603  and  _604
REMARK  252  A    between atoms: _609  and  _611
REMARK  253  A    between atoms: _611  and  _612
REMARK  254  A    between atoms: _611  and  _614
REMARK  255  A    between atoms: _614  and  _615
REMARK  256  A    between atoms: _618  and  _620
REMARK  257  A    between atoms: _620  and  _621
REMARK  258  A    between atoms: _620  and  _623
REMARK  259  A    between atoms: _623  and  _624
REMARK  260  A    between atoms: _631  and  _632
REMARK  261  A    between atoms: _637  and  _639
REMARK  262  A    between atoms: _639  and  _640
REMARK  263  A    between atoms: _639  and  _642
REMARK  264  A    between atoms: _645  and  _647
REMARK  265  A    between atoms: _647  and  _648
REMARK  266  A    between atoms: _651  and  _653
REMARK  267  A    between atoms: _653  and  _654
REMARK  268  A    between atoms: _653  and  _656
REMARK  269  A    between atoms: _656  and  _657
REMARK  270  A    between atoms: _662  and  _663
REMARK  271  A    between atoms: _665  and  _667
REMARK  272  A    between atoms: _667  and  _668
REMARK  273  A    between atoms: _667  and  _670
REMARK  274  A    between atoms: _670  and  _671
REMARK  275  A    between atoms: _676  and  _678
REMARK  276  A    between atoms: _678  and  _679
REMARK  277  A    between atoms: _678  and  _681
REMARK  278  A    between atoms: _681  and  _682
REMARK  279  A    between atoms: _685  and  _687
REMARK  280  A    between atoms: _687  and  _688
REMARK  281  A    between atoms: _687  and  _690
REMARK  282  A    between atoms: _690  and  _691
REMARK  283  A    between atoms: _694  and  _696
REMARK  284  A    between atoms: _696  and  _697
REMARK  285  A    between atoms: _696  and  _699
REMARK  286  A    between atoms: _699  and  _700
REMARK  287  A    between atoms: _700  and  _701
REMARK  288  A    between atoms: _701  and  _702
REMARK  289  A    between atoms: _702  and  _703
REMARK  290  A    between atoms: _707  and  _709
REMARK  291  A    between atoms: _709  and  _710
REMARK  292  A    between atoms: _709  and  _712
REMARK  293  A    between atoms: _712  and  _713
REMARK  294  A    between atoms: _719  and  _721
REMARK  295  A    between atoms: _721  and  _722
REMARK  296  A    between atoms: _721  and  _724
REMARK  297  A    between atoms: _724  and  _725
REMARK  298  A    between atoms: _728  and  _730
REMARK  299  A    between atoms: _730  and  _731
REMARK  300  A    between atoms: _730  and  _733
REMARK  301  A    between atoms: _733  and  _734
REMARK  302  A    between atoms: _736  and  _738
REMARK  303  A    between atoms: _738  and  _739
REMARK  304  A    between atoms: _738  and  _741
REMARK  305  A    between atoms: _741  and  _742
REMARK  306  A    between atoms: _745  and  _747
REMARK  307  A    between atoms: _747  and  _748
REMARK  308  A    between atoms: _747  and  _750
REMARK  309  A    between atoms: _750  and  _751
REMARK  310  A    between atoms: _751  and  _752
REMARK  311  A    between atoms: _752  and  _753
REMARK  312  A    between atoms: _762  and  _764
REMARK  313  A    between atoms: _764  and  _765
REMARK  314  A    between atoms: _764  and  _767
REMARK  315  A    between atoms: _767  and  _768
REMARK  316  A    between atoms: _771  and  _773
REMARK  317  A    between atoms: _773  and  _774
REMARK  318  A    between atoms: _773  and  _776
REMARK  319  A    between atoms: _776  and  _777
REMARK  320  A    between atoms: _777  and  _778
REMARK  321  A    between atoms: _780  and  _782
REMARK  322  A    between atoms: _782  and  _783
REMARK  323  A    between atoms: _782  and  _785
REMARK  324  A    between atoms: _788  and  _790
REMARK  325  A    between atoms: _790  and  _791
REMARK  326  A    between atoms: _790  and  _793
REMARK  327  A    between atoms: _793  and  _794
REMARK                            x       y       z     vdW  Elec       q    Type
REMARK                         _______ _______ _______ _____ _____    ______ ____
ROOT
ATOM      1  CA  TYR A   6      94.338   3.907  13.879  0.00  0.00    +0.153 C 
ENDROOT
BRANCH   1   4
ATOM      2  C   ALA A   5      94.970   6.201  13.411  0.00  0.00    +0.241 C 
ATOM      3  O   ALA A   5      93.836   6.608  13.622  0.00  0.00    -0.273 OA
ATOM      4  N   TYR A   6      95.318   4.920  13.508  0.00  0.00    -0.297 N 
ATOM      5  H   TYR A   6      96.301   4.639  13.317  0.00  0.00    +0.150 HD
BRANCH   2   6
ATOM      6  CA  ALA A   5      96.068   7.165  13.000  0.00  0.00    +0.149 C 
ATOM      7  CB  ALA A   5      96.364   7.019  11.498  0.00  0.00    +0.031 C 
BRANCH   6  10
ATOM      8  C   VAL A   4      97.292   7.006  15.092  0.00  0.00    +0.241 C 
ATOM      9  O   VAL A   4      96.319   7.363  15.736  0.00  0.00    -0.273 OA
ATOM     10  N   ALA A   5      97.269   6.903  13.764  0.00  0.00    -0.297 N 
ATOM     11  H   ALA A   5      98.137   6.627  13.263  0.00  0.00    +0.150 HD
BRANCH   8  12
ATOM     12  CA  VAL A   4      98.610   6.646  15.785  0.00  0.00    +0.149 C 
BRANCH  12  15
ATOM     13  C   PRO A   3      98.595   4.264  15.415  0.00  0.00    +0.241 C 
ATOM     14  O   PRO A   3      97.537   4.191  16.035  0.00  0.00    -0.273 OA
ATOM     15  N   VAL A   4      99.205   5.429  15.263  0.00  0.00    -0.297 N 
ATOM     16  H   VAL A   4     100.117   5.473  14.766  0.00  0.00    +0.150 HD
BRANCH  13  19
ATOM     17  C   PHE A   2      99.012   3.784  12.471  0.00  0.00    +0.244 C 
ATOM     18  N   PRO A   3      99.836   3.316  13.426  0.00  0.00    -0.272 N 
ATOM     19  CA  PRO A   3      99.243   3.049  14.742  0.00  0.00    +0.152 C 
ATOM     20  CB  PRO A   3     100.433   2.506  15.541  0.00  0.00    +0.031 C 
ATOM     21  CG  PRO A   3     101.288   1.857  14.524  0.00  0.00    +0.024 C 
ATOM     22  CD  PRO A   3     101.194   2.758  13.314  0.00  0.00    +0.094 C 
ATOM     23  O   PHE A   2      97.845   4.006  12.704  0.00  0.00    -0.273 OA
BRANCH  17  24
ATOM     24  CA  PHE A   2      99.566   4.035  11.059  0.00  0.00    +0.153 C 
BRANCH  24  27
ATOM     25  C   LEU A   1     100.959   5.930  11.619  0.00  0.00    +0.238 C 
ATOM     26  O   LEU A   1     100.088   6.362  12.370  0.00  0.00    -0.274 OA
ATOM     27  N   PHE A   2     100.837   4.763  10.997  0.00  0.00    -0.297 N 
ATOM     28  H   PHE A   2     101.640   4.367  10.468  0.00  0.00    +0.150 HD
BRANCH  25  29
ATOM     29  CA  LEU A   1     102.228   6.736  11.348  0.00  0.00    +0.145 C 
BRANCH  29  30
ATOM     30  N   LEU A   1     103.280   5.935  10.743  0.00  0.00    -0.238 NA
ATOM     31  H   LEU A   1     103.551   6.122   9.756  0.00  0.00    +0.142 HD
ENDBRANCH  29  30
BRANCH  29  32
ATOM     32  CB  LEU A   1     101.887   7.896  10.410  0.00  0.00    +0.026 C 
BRANCH  32  33
ATOM     33  CG  LEU A   1     100.871   8.913  10.906  0.00  0.00    +0.002 C 
ATOM     34  CD2 LEU A   1     101.279   9.524  12.262  0.00  0.00    +0.000 C 
ATOM     35  CD1 LEU A   1     100.615  10.012   9.871  0.00  0.00    +0.000 C 
ENDBRANCH  32  33
ENDBRANCH  29  32
ENDBRANCH  25  29
ENDBRANCH  24  27
BRANCH  24  36
ATOM     36  CB  PHE A   2      99.608   2.725  10.252  0.00  0.00    +0.055 C 
BRANCH  36  37
ATOM     37  CG  PHE A   2      98.346   1.923  10.369  0.00  0.00    -0.020 A 
ATOM     38  CD2 PHE A   2      98.227   0.919  11.309  0.00  0.00    -0.004 A 
ATOM     39  CE2 PHE A   2      97.047   0.200  11.426  0.00  0.00    -0.000 A 
ATOM     40  CZ  PHE A   2      95.978   0.509  10.608  0.00  0.00    -0.000 A 
ATOM     41  CE1 PHE A   2      96.078   1.480   9.684  0.00  0.00    -0.000 A 
ATOM     42  CD1 PHE A   2      97.261   2.207   9.557  0.00  0.00    -0.004 A 
ENDBRANCH  36  37
ENDBRANCH  24  36
ENDBRANCH  17  24
ENDBRANCH  13  19
ENDBRANCH  12  15
BRANCH  12  43
ATOM     43  CB  VAL A   4      99.615   7.825  15.698  0.00  0.00    +0.027 C 
ATOM     44  CG2 VAL A   4     100.701   7.632  16.753  0.00  0.00    +0.002 C 
ATOM     45  CG1 VAL A   4      98.921   9.141  15.871  0.00  0.00    +0.002 C 
ENDBRANCH  12  43
ENDBRANCH   8  12
ENDBRANCH   6  10
ENDBRANCH   2   6
ENDBRANCH   1   4
BRANCH   1  46
ATOM     46  C   TYR A   6      93.754   4.212  15.251  0.00  0.00    +0.241 C 
ATOM     47  N   ASN A   7      94.595   4.607  16.209  0.00  0.00    -0.297 N 
ATOM     48  H   ASN A   7      95.616   4.664  16.020  0.00  0.00    +0.150 HD
ATOM     49  O   TYR A   6      92.555   4.153  15.444  0.00  0.00    -0.273 OA
BRANCH  47  50
ATOM     50  CA  ASN A   7      94.073   4.956  17.514  0.00  0.00    +0.158 C 
BRANCH  50  51
ATOM     51  C   ASN A   7      93.099   6.129  17.510  0.00  0.00    +0.241 C 
ATOM     52  O   ASN A   7      92.219   6.202  18.359  0.00  0.00    -0.273 OA
ATOM     53  N   LEU A   8      93.256   7.052  16.564  0.00  0.00    -0.297 N 
ATOM     54  H   LEU A   8      94.042   6.955  15.890  0.00  0.00    +0.150 HD
BRANCH  53  55
ATOM     55  CA  LEU A   8      92.360   8.193  16.446  0.00  0.00    +0.149 C 
BRANCH  55  56
ATOM     56  C   LEU A   8      90.997   7.786  15.950  0.00  0.00    +0.241 C 
ATOM     57  O   LEU A   8      90.016   8.464  16.225  0.00  0.00    -0.273 OA
ATOM     58  N   ILE A   9      90.909   6.680  15.233  0.00  0.00    -0.297 N 
ATOM     59  H   ILE A   9      91.748   6.098  15.036  0.00  0.00    +0.150 HD
BRANCH  58  60
ATOM     60  CA  ILE A   9      89.583   6.301  14.723  0.00  0.00    +0.149 C 
BRANCH  60  61
ATOM     61  C   ILE A   9      88.965   5.085  15.436  0.00  0.00    +0.241 C 
ATOM     62  N   LYS A  10      89.733   4.374  16.268  0.00  0.00    -0.298 N 
ATOM     63  H   LYS A  10      90.734   4.632  16.379  0.00  0.00    +0.150 HD
ATOM     64  O   ILE A   9      87.770   4.857  15.300  0.00  0.00    -0.273 OA
BRANCH  62  65
ATOM     65  CA  LYS A  10      89.205   3.250  17.021  0.00  0.00    +0.137 C 
BRANCH  65  66
ATOM     66  C   LYS A  10      87.945   3.578  17.818  0.00  0.00    +0.227 C 
ATOM     67  O   LYS A  10      87.078   2.722  17.929  0.00  0.00    -0.286 OA
ENDBRANCH  65  66
BRANCH  65  68
ATOM     68  CB  LYS A  10      90.259   2.688  17.971  0.00  0.00    +0.028 C 
BRANCH  68  69
ATOM     69  CG  LYS A  10      91.220   1.739  17.308  0.00  0.00    -0.000 C 
BRANCH  69  70
ATOM     70  CD  LYS A  10      92.358   1.327  18.251  0.00  0.00    -0.024 C 
BRANCH  70  71
ATOM     71  CE  LYS A  10      93.412   0.526  17.507  0.00  0.00    -0.086 C 
BRANCH  71  72
ATOM     72  NZ  LYS A  10      94.604   0.234  18.369  0.00  0.00    +0.380 N 
ATOM     73  HZ1 LYS A  10      94.303  -0.315  19.200  0.00  0.00    -0.089 HD
ATOM     74  HZ2 LYS A  10      95.033   1.129  18.680  0.00  0.00    -0.089 HD
ATOM     75  HZ3 LYS A  10      95.299  -0.314  17.823  0.00  0.00    -0.089 HD
ENDBRANCH  71  72
ENDBRANCH  70  71
ENDBRANCH  69  70
ENDBRANCH  68  69
ENDBRANCH  65  68
ENDBRANCH  62  65
ENDBRANCH  60  61
BRANCH  60  76
ATOM     76  CB  ILE A   9      89.555   6.221  13.187  0.00  0.00    +0.027 C 
ATOM     77  CG2 ILE A   9      89.973   7.587  12.542  0.00  0.00    +0.002 C 
BRANCH  76  78
ATOM     78  CG1 ILE A   9      90.448   5.122  12.722  0.00  0.00    +0.002 C 
ATOM     79  CD1 ILE A   9      89.776   3.808  12.735  0.00  0.00    +0.000 C 
ENDBRANCH  76  78
ENDBRANCH  60  76
ENDBRANCH  58  60
ENDBRANCH  55  56
BRANCH  55  80
ATOM     80  CB  LEU A   8      92.922   9.256  15.510  0.00  0.00    +0.029 C 
BRANCH  80  81
ATOM     81  CG  LEU A   8      94.093  10.080  16.052  0.00  0.00    +0.002 C 
ATOM     82  CD2 LEU A   8      93.593  10.934  17.202  0.00  0.00    +0.000 C 
ATOM     83  CD1 LEU A   8      94.663  10.955  14.946  0.00  0.00    +0.000 C 
ENDBRANCH  80  81
ENDBRANCH  55  80
ENDBRANCH  53  55
ENDBRANCH  50  51
BRANCH  50  84
ATOM     84  CB  ASN A   7      95.230   5.252  18.489  0.00  0.00    +0.114 C 
BRANCH  84  85
ATOM     85  CG  ASN A   7      95.867   4.001  19.029  0.00  0.00    +0.222 C 
ATOM     86  ND2 ASN A   7      97.094   4.135  19.504  0.00  0.00    -0.329 N 
ATOM     87 HD21 ASN A   7      97.580   3.319  19.927  0.00  0.00    +0.145 HD
ATOM     88 HD22 ASN A   7      97.573   5.057  19.455  0.00  0.00    +0.145 HD
ATOM     89  OD1 ASN A   7      95.257   2.937  19.062  0.00  0.00    -0.275 OA
ENDBRANCH  84  85
ENDBRANCH  50  84
ENDBRANCH  47  50
ENDBRANCH   1  46
BRANCH   1  90
ATOM     90  CB  TYR A   6      94.980   2.522  13.810  0.00  0.00    +0.055 C 
BRANCH  90  91
ATOM     91  CG  TYR A   6      94.095   1.294  13.947  0.00  0.00    -0.020 A 
ATOM     92  CD2 TYR A   6      94.686   0.063  14.187  0.00  0.00    -0.001 A 
ATOM     93  CE2 TYR A   6      93.930  -1.095  14.296  0.00  0.00    +0.036 A 
ATOM     94  CZ  TYR A   6      92.568  -1.030  14.142  0.00  0.00    +0.134 A 
ATOM     95  CE1 TYR A   6      91.950   0.170  13.880  0.00  0.00    +0.036 A 
ATOM     96  CD1 TYR A   6      92.730   1.341  13.762  0.00  0.00    -0.001 A 
BRANCH  94  97
ATOM     97  OH  TYR A   6      91.821  -2.192  14.258  0.00  0.00    -0.506 OA
ATOM     98  HH  TYR A   6      91.951  -2.578  15.161  0.00  0.00    +0.292 HD
ENDBRANCH  94  97
ENDBRANCH  90  91
ENDBRANCH   1  90
TORSDOF 38
REMARK  Name = ../refined-set-2016/4omj/4omj_pocket.pdb
REMARK  327 active torsions:
REMARK  status: ('A' for Active; 'I' for Inactive)
REMARK    1  A    between atoms: _1  and  _3
REMARK    2  A    between atoms: _3  and  _4
REMARK    3  A    between atoms: _3  and  _6
REMARK    4  A    between atoms: _6  and  _7
REMARK    5  A    between atoms: _10  and  _12
REMARK    6  A    between atoms: _12  and  _13
REMARK    7  A    between atoms: _12  and  _15
REMARK    8  A    between atoms: _15  and  _16
REMARK    9  A    between atoms: _21  and  _22
REMARK   10  A    between atoms: _24  and  _26
REMARK   11  A    between atoms: _26  and  _27
REMARK   12  A    between atoms: _26  and  _29
REMARK   13  A    between atoms: _29  and  _30
REMARK   14  A    between atoms: _33  and  _35
REMARK   15  A    between atoms: _35  and  _36
REMARK   16  A    between atoms: _35  and  _38
REMARK   17  A    between atoms: _38  and  _39
REMARK   18  A    between atoms: _41  and  _43
REMARK   19  A    between atoms: _43  and  _44
REMARK   20  A    between atoms: _43  and  _46
REMARK   21  A    between atoms: _46  and  _47
REMARK   22  A    between atoms: _57  and  _59
REMARK   23  A    between atoms: _59  and  _60
REMARK   24  A    between atoms: _59  and  _62
REMARK   25  A    between atoms: _62  and  _63
REMARK   26  A    between atoms: _66  and  _68
REMARK   27  A    between atoms: _68  and  _69
REMARK   28  A    between atoms: _68  and  _71
REMARK   29  A    between atoms: _71  and  _72
REMARK   30  A    between atoms: _75  and  _77
REMARK   31  A    between atoms: _77  and  _78
REMARK   32  A    between atoms: _77  and  _80
REMARK   33  A    between atoms: _80  and  _81
REMARK   34  A    between atoms: _84  and  _86
REMARK   35  A    between atoms: _86  and  _87
REMARK   36  A    between atoms: _89  and  _91
REMARK   37  A    between atoms: _91  and  _92
REMARK   38  A    between atoms: _91  and  _94
REMARK   39  A    between atoms: _94  and  _95
REMARK   40  A    between atoms: _98  and  _100
REMARK   41  A    between atoms: _100  and  _101
REMARK   42  A    between atoms: _100  and  _103
REMARK   43  A    between atoms: _103  and  _104
REMARK   44  A    between atoms: _107  and  _109
REMARK   45  A    between atoms: _109  and  _110
REMARK   46  A    between atoms: _113  and  _115
REMARK   47  A    between atoms: _115  and  _116
REMARK   48  A    between atoms: _115  and  _118
REMARK   49  A    between atoms: _118  and  _119
REMARK   50  A    between atoms: _119  and  _120
REMARK   51  A    between atoms: _120  and  _121
REMARK   52  A    between atoms: _121  and  _122
REMARK   53  A    between atoms: _126  and  _128
REMARK   54  A    between atoms: _128  and  _129
REMARK   55  A    between atoms: _131  and  _133
REMARK   56  A    between atoms: _133  and  _134
REMARK   57  A    between atoms: _133  and  _136
REMARK   58  A    between atoms: _136  and  _137
REMARK   59  A    between atoms: _140  and  _142
REMARK   60  A    between atoms: _142  and  _143
REMARK   61  A    between atoms: _142  and  _145
REMARK   62  A    between atoms: _145  and  _146
REMARK   63  A    between atoms: _149  and  _151
REMARK   64  A    between atoms: _151  and  _152
REMARK   65  A    between atoms: _151  and  _154
REMARK   66  A    between atoms: _154  and  _155
REMARK   67  A    between atoms: _161  and  _163
REMARK   68  A    between atoms: _163  and  _164
REMARK   69  A    between atoms: _167  and  _169
REMARK   70  A    between atoms: _169  and  _170
REMARK   71  A    between atoms: _169  and  _172
REMARK   72  A    between atoms: _172  and  _173
REMARK   73  A    between atoms: _175  and  _177
REMARK   74  A    between atoms: _177  and  _178
REMARK   75  A    between atoms: _177  and  _180
REMARK   76  A    between atoms: _180  and  _181
REMARK   77  A    between atoms: _181  and  _182
REMARK   78  A    between atoms: _182  and  _183
REMARK   79  A    between atoms: _183  and  _184
REMARK   80  A    between atoms: _188  and  _190
REMARK   81  A    between atoms: _190  and  _191
REMARK   82  A    between atoms: _190  and  _193
REMARK   83  A    between atoms: _193  and  _194
REMARK   84  A    between atoms: _194  and  _195
REMARK   85  A    between atoms: _200  and  _202
REMARK   86  A    between atoms: _202  and  _203
REMARK   87  A    between atoms: _202  and  _205
REMARK   88  A    between atoms: _205  and  _206
REMARK   89  A    between atoms: _209  and  _211
REMARK   90  A    between atoms: _211  and  _212
REMARK   91  A    between atoms: _211  and  _214
REMARK   92  A    between atoms: _214  and  _215
REMARK   93  A    between atoms: _218  and  _220
REMARK   94  A    between atoms: _220  and  _221
REMARK   95  A    between atoms: _220  and  _223
REMARK   96  A    between atoms: _223  and  _224
REMARK   97  A    between atoms: _227  and  _229
REMARK   98  A    between atoms: _229  and  _230
REMARK   99  A    between atoms: _229  and  _232
REMARK  100  A    between atoms: _232  and  _233
REMARK  101  A    between atoms: _233  and  _234
REMARK  102  A    between atoms: _234  and  _235
REMARK  103  A    between atoms: _244  and  _246
REMARK  104  A    between atoms: _246  and  _247
REMARK  105  A    between atoms: _246  and  _249
REMARK  106  A    between atoms: _249  and  _250
REMARK  107  A    between atoms: _253  and  _255
REMARK  108  A    between atoms: _255  and  _256
REMARK  109  A    between atoms: _255  and  _258
REMARK  110  A    between atoms: _258  and  _259
REMARK  111  A    between atoms: _259  and  _260
REMARK  112  A    between atoms: _260  and  _261
REMARK  113  A    between atoms: _261  and  _262
REMARK  114  A    between atoms: _266  and  _268
REMARK  115  A    between atoms: _268  and  _269
REMARK  116  A    between atoms: _268  and  _271
REMARK  117  A    between atoms: _271  and  _272
REMARK  118  A    between atoms: _272  and  _273
REMARK  119  A    between atoms: _275  and  _277
REMARK  120  A    between atoms: _277  and  _278
REMARK  121  A    between atoms: _277  and  _280
REMARK  122  A    between atoms: _280  and  _281
REMARK  123  A    between atoms: _281  and  _282
REMARK  124  A    between atoms: _285  and  _287
REMARK  125  A    between atoms: _287  and  _288
REMARK  126  A    between atoms: _287  and  _290
REMARK  127  A    between atoms: _292  and  _294
REMARK  128  A    between atoms: _294  and  _295
REMARK  129  A    between atoms: _294  and  _297
REMARK  130  A    between atoms: _297  and  _298
REMARK  131  A    between atoms: _301  and  _303
REMARK  132  A    between atoms: _303  and  _304
REMARK  133  A    between atoms: _303  and  _306
REMARK  134  A    between atoms: _306  and  _307
REMARK  135  A    between atoms: _310  and  _312
REMARK  136  A    between atoms: _312  and  _313
REMARK  137  A    between atoms: _312  and  _315
REMARK  138  A    between atoms: _315  and  _316
REMARK  139  A    between atoms: _319  and  _321
REMARK  140  A    between atoms: _321  and  _322
REMARK  141  A    between atoms: _321  and  _324
REMARK  142  A    between atoms: _324  and  _325
REMARK  143  A    between atoms: _330  and  _331
REMARK  144  A    between atoms: _333  and  _335
REMARK  145  A    between atoms: _335  and  _336
REMARK  146  A    between atoms: _335  and  _338
REMARK  147  A    between atoms: _338  and  _339
REMARK  148  A    between atoms: _342  and  _344
REMARK  149  A    between atoms: _344  and  _345
REMARK  150  A    between atoms: _344  and  _347
REMARK  151  A    between atoms: _349  and  _351
REMARK  152  A    between atoms: _351  and  _352
REMARK  153  A    between atoms: _351  and  _354
REMARK  154  A    between atoms: _354  and  _355
REMARK  155  A    between atoms: _358  and  _360
REMARK  156  A    between atoms: _360  and  _361
REMARK  157  A    between atoms: _363  and  _365
REMARK  158  A    between atoms: _365  and  _366
REMARK  159  A    between atoms: _365  and  _368
REMARK  160  A    between atoms: _368  and  _369
REMARK  161  A    between atoms: _369  and  _370
REMARK  162  A    between atoms: _370  and  _371
REMARK  163  A    between atoms: _371  and  _372
REMARK  164  A    between atoms: _376  and  _378
REMARK  165  A    between atoms: _378  and  _379
REMARK  166  A    between atoms: _378  and  _381
REMARK  167  A    between atoms: _381  and  _382
REMARK  168  A    between atoms: _387  and  _389
REMARK  169  A    between atoms: _389  and  _390
REMARK  170  A    between atoms: _389  and  _392
REMARK  171  A    between atoms: _392  and  _393
REMARK  172  A    between atoms: _396  and  _398
REMARK  173  A    between atoms: _398  and  _399
REMARK  174  A    between atoms: _398  and  _401
REMARK  175  A    between atoms: _401  and  _402
REMARK  176  A    between atoms: _412  and  _414
REMARK  177  A    between atoms: _414  and  _415
REMARK  178  A    between atoms: _414  and  _417
REMARK  179  A    between atoms: _417  and  _418
REMARK  180  A    between atoms: _418  and  _419
REMARK  181  A    between atoms: _419  and  _420
REMARK  182  A    between atoms: _420  and  _421
REMARK  183  A    between atoms: _426  and  _427
REMARK  184  A    between atoms: _432  and  _434
REMARK  185  A    between atoms: _434  and  _435
REMARK  186  A    between atoms: _438  and  _440
REMARK  187  A    between atoms: _440  and  _441
REMARK  188  A    between atoms: _440  and  _443
REMARK  189  A    between atoms: _446  and  _448
REMARK  190  A    between atoms: _448  and  _449
REMARK  191  A    between atoms: _448  and  _451
REMARK  192  A    between atoms: _451  and  _452
REMARK  193  A    between atoms: _452  and  _453
REMARK  194  A    between atoms: _456  and  _458
REMARK  195  A    between atoms: _458  and  _459
REMARK  196  A    between atoms: _462  and  _464
REMARK  197  A    between atoms: _464  and  _465
REMARK  198  A    between atoms: _464  and  _467
REMARK  199  A    between atoms: _467  and  _468
REMARK  200  A    between atoms: _473  and  _474
REMARK  201  A    between atoms: _476  and  _478
REMARK  202  A    between atoms: _478  and  _479
REMARK  203  A    between atoms: _481  and  _483
REMARK  204  A    between atoms: _483  and  _484
REMARK  205  A    between atoms: _483  and  _486
REMARK  206  A    between atoms: _486  and  _487
REMARK  207  A    between atoms: _487  and  _488
REMARK  208  A    between atoms: _491  and  _493
REMARK  209  A    between atoms: _493  and  _494
REMARK  210  A    between atoms: _493  and  _496
REMARK  211  A    between atoms: _496  and  _497
REMARK  212  A    between atoms: _503  and  _505
REMARK  213  A    between atoms: _505  and  _506
REMARK  214  A    between atoms: _505  and  _508
REMARK  215  A    between atoms: _508  and  _509
REMARK  216  A    between atoms: _512  and  _514
REMARK  217  A    between atoms: _514  and  _515
REMARK  218  A    between atoms: _514  and  _517
REMARK  219  A    between atoms: _519  and  _521
REMARK  220  A    between atoms: _521  and  _522
REMARK  221  A    between atoms: _521  and  _524
REMARK  222  A    between atoms: _524  and  _525
REMARK  223  A    between atoms: _531  and  _533
REMARK  224  A    between atoms: _533  and  _534
REMARK  225  A    between atoms: _533  and  _536
REMARK  226  A    between atoms: _536  and  _537
REMARK  227  A    between atoms: _537  and  _538
REMARK  228  A    between atoms: _541  and  _543
REMARK  229  A    between atoms: _543  and  _544
REMARK  230  A    between atoms: _543  and  _546
REMARK  231  A    between atoms: _546  and  _547
REMARK  232  A    between atoms: _550  and  _552
REMARK  233  A    between atoms: _552  and  _553
REMARK  234  A    between atoms: _552  and  _555
REMARK  235  A    between atoms: _555  and  _556
REMARK  236  A    between atoms: _556  and  _557
REMARK  237  A    between atoms: _557  and  _558
REMARK  238  A    between atoms: _567  and  _569
REMARK  239  A    between atoms: _569  and  _570
REMARK  240  A    between atoms: _569  and  _572
REMARK  241  A    between atoms: _572  and  _573
REMARK  242  A    between atoms: _576  and  _578
REMARK  243  A    between atoms: _578  and  _579
REMARK  244  A    between atoms: _578  and  _581
REMARK  245  A    between atoms: _581  and  _582
REMARK  246  A    between atoms: _588  and  _590
REMARK  247  A    between atoms: _590  and  _591
REMARK  248  A    between atoms: _590  and  _593
REMARK  249  A    between atoms: _596  and  _598
REMARK  250  A    between atoms: _598  and  _599
REMARK  251  A    between atoms: _603  and  _604
REMARK  252  A    between atoms: _609  and  _611
REMARK  253  A    between atoms: _611  and  _612
REMARK  254  A    between atoms: _611  and  _614
REMARK  255  A    between atoms: _614  and  _615
REMARK  256  A    between atoms: _618  and  _620
REMARK  257  A    between atoms: _620  and  _621
REMARK  258  A    between atoms: _620  and  _623
REMARK  259  A    between atoms: _623  and  _624
REMARK  260  A    between atoms: _631  and  _632
REMARK  261  A    between atoms: _637  and  _639
REMARK  262  A    between atoms: _639  and  _640
REMARK  263  A    between atoms: _639  and  _642
REMARK  264  A    between atoms: _645  and  _647
REMARK  265  A    between atoms: _647  and  _648
REMARK  266  A    between atoms: _651  and  _653
REMARK  267  A    between atoms: _653  and  _654
REMARK  268  A    between atoms: _653  and  _656
REMARK  269  A    between atoms: _656  and  _657
REMARK  270  A    between atoms: _662  and  _663
REMARK  271  A    between atoms: _665  and  _667
REMARK  272  A    between atoms: _667  and  _668
REMARK  273  A    between atoms: _667  and  _670
REMARK  274  A    between atoms: _670  and  _671
REMARK  275  A    between atoms: _676  and  _678
REMARK  276  A    between atoms: _678  and  _679
REMARK  277  A    between atoms: _678  and  _681
REMARK  278  A    between atoms: _681  and  _682
REMARK  279  A    between atoms: _685  and  _687
REMARK  280  A    between atoms: _687  and  _688
REMARK  281  A    between atoms: _687  and  _690
REMARK  282  A    between atoms: _690  and  _691
REMARK  283  A    between atoms: _694  and  _696
REMARK  284  A    between atoms: _696  and  _697
REMARK  285  A    between atoms: _696  and  _699
REMARK  286  A    between atoms: _699  and  _700
REMARK  287  A    between atoms: _700  and  _701
REMARK  288  A    between atoms: _701  and  _702
REMARK  289  A    between atoms: _702  and  _703
REMARK  290  A    between atoms: _707  and  _709
REMARK  291  A    between atoms: _709  and  _710
REMARK  292  A    between atoms: _709  and  _712
REMARK  293  A    between atoms: _712  and  _713
REMARK  294  A    between atoms: _719  and  _721
REMARK  295  A    between atoms: _721  and  _722
REMARK  296  A    between atoms: _721  and  _724
REMARK  297  A    between atoms: _724  and  _725
REMARK  298  A    between atoms: _728  and  _730
REMARK  299  A    between atoms: _730  and  _731
REMARK  300  A    between atoms: _730  and  _733
REMARK  301  A    between atoms: _733  and  _734
REMARK  302  A    between atoms: _736  and  _738
REMARK  303  A    between atoms: _738  and  _739
REMARK  304  A    between atoms: _738  and  _741
REMARK  305  A    between atoms: _741  and  _742
REMARK  306  A    between atoms: _745  and  _747
REMARK  307  A    between atoms: _747  and  _748
REMARK  308  A    between atoms: _747  and  _750
REMARK  309  A    between atoms: _750  and  _751
REMARK  310  A    between atoms: _751  and  _752
REMARK  311  A    between atoms: _752  and  _753
REMARK  312  A    between atoms: _762  and  _764
REMARK  313  A    between atoms: _764  and  _765
REMARK  314  A    between atoms: _764  and  _767
REMARK  315  A    between atoms: _767  and  _768
REMARK  316  A    between atoms: _771  and  _773
REMARK  317  A    between atoms: _773  and  _774
REMARK  318  A    between atoms: _773  and  _776
REMARK  319  A    between atoms: _776  and  _777
REMARK  320  A    between atoms: _777  and  _778
REMARK  321  A    between atoms: _780  and  _782
REMARK  322  A    between atoms: _782  and  _783
REMARK  323  A    between atoms: _782  and  _785
REMARK  324  A    between atoms: _788  and  _790
REMARK  325  A    between atoms: _790  and  _791
REMARK  326  A    between atoms: _790  and  _793
REMARK  327  A    between atoms: _793  and  _794
REMARK                            x       y       z     vdW  Elec       q    Type
REMARK                         _______ _______ _______ _____ _____    ______ ____
ROOT
ATOM      1  CA  LEU A   2      84.613   1.380  15.389  0.00  0.00    +0.149 C 
ENDROOT
BRANCH   1   3
ATOM      2  C   PHE A   1      83.924   3.725  15.634  0.00  0.00    +0.239 C 
ATOM      3  N   LEU A   2      84.776   2.737  15.913  0.00  0.00    -0.297 N 
ATOM      4  H   LEU A   2      85.590   2.939  16.528  0.00  0.00    +0.150 HD
ATOM      5  O   PHE A   1      82.888   3.567  14.985  0.00  0.00    -0.274 OA
BRANCH   2   6
ATOM      6  CA  PHE A   1      84.271   5.116  16.157  0.00  0.00    +0.149 C 
BRANCH   6   7
ATOM      7  N   PHE A   1      85.448   5.102  17.010  0.00  0.00    -0.238 NA
ATOM      8  H   PHE A   1      86.392   5.150  16.576  0.00  0.00    +0.142 HD
ENDBRANCH   6   7
BRANCH   6   9
ATOM      9  CB  PHE A   1      84.502   6.046  14.964  0.00  0.00    +0.053 C 
BRANCH   9  10
ATOM     10  CG  PHE A   1      84.980   7.429  15.336  0.00  0.00    -0.020 A 
ATOM     11  CD2 PHE A   1      84.143   8.305  15.995  0.00  0.00    -0.004 A 
ATOM     12  CE2 PHE A   1      84.567   9.577  16.336  0.00  0.00    -0.000 A 
ATOM     13  CZ  PHE A   1      85.831   9.994  15.992  0.00  0.00    -0.000 A 
ATOM     14  CE1 PHE A   1      86.682   9.144  15.325  0.00  0.00    -0.000 A 
ATOM     15  CD1 PHE A   1      86.245   7.851  14.985  0.00  0.00    -0.004 A 
ENDBRANCH   9  10
ENDBRANCH   6   9
ENDBRANCH   2   6
ENDBRANCH   1   3
BRANCH   1  16
ATOM     16  C   LEU A   2      83.995   0.432  16.402  0.00  0.00    +0.241 C 
ATOM     17  O   LEU A   2      84.276   0.524  17.594  0.00  0.00    -0.273 OA
ATOM     18  N   SER A   3      83.208  -0.525  15.917  0.00  0.00    -0.296 N 
ATOM     19  H   SER A   3      82.944  -0.515  14.911  0.00  0.00    +0.150 HD
BRANCH  18  20
ATOM     20  CA  SER A   3      82.711  -1.590  16.784  0.00  0.00    +0.166 C 
BRANCH  20  21
ATOM     21  C   SER A   3      83.786  -2.641  17.041  0.00  0.00    +0.229 C 
ATOM     22  O   SER A   3      84.738  -2.772  16.263  0.00  0.00    -0.286 OA
ENDBRANCH  20  21
BRANCH  20  23
ATOM     23  CB  SER A   3      81.487  -2.273  16.164  0.00  0.00    +0.165 C 
BRANCH  23  24
ATOM     24  OG  SER A   3      81.807  -2.974  14.964  0.00  0.00    -0.380 OA
ATOM     25  H   SER A   3      82.173  -2.338  14.299  0.00  0.00    +0.211 HD
ENDBRANCH  23  24
ENDBRANCH  20  23
ENDBRANCH  18  20
ENDBRANCH   1  16
BRANCH   1  26
ATOM     26  CB  LEU A   2      85.955   0.785  14.971  0.00  0.00    +0.029 C 
BRANCH  26  27
ATOM     27  CG  LEU A   2      86.751   1.550  13.929  0.00  0.00    +0.002 C 
ATOM     28  CD2 LEU A   2      88.057   0.825  13.607  0.00  0.00    +0.000 C 
ATOM     29  CD1 LEU A   2      85.924   1.761  12.657  0.00  0.00    +0.000 C 
ENDBRANCH  26  27
ENDBRANCH   1  26
TORSDOF 12
REMARK  Name = ../refined-set-2016/4omj/4omj_pocket.pdb
REMARK  327 active torsions:
REMARK  status: ('A' for Active; 'I' for Inactive)
REMARK    1  A    between atoms: _1  and  _3
REMARK    2  A    between atoms: _3  and  _4
REMARK    3  A    between atoms: _3  and  _6
REMARK    4  A    between atoms: _6  and  _7
REMARK    5  A    between atoms: _10  and  _12
REMARK    6  A    between atoms: _12  and  _13
REMARK    7  A    between atoms: _12  and  _15
REMARK    8  A    between atoms: _15  and  _16
REMARK    9  A    between atoms: _21  and  _22
REMARK   10  A    between atoms: _24  and  _26
REMARK   11  A    between atoms: _26  and  _27
REMARK   12  A    between atoms: _26  and  _29
REMARK   13  A    between atoms: _29  and  _30
REMARK   14  A    between atoms: _33  and  _35
REMARK   15  A    between atoms: _35  and  _36
REMARK   16  A    between atoms: _35  and  _38
REMARK   17  A    between atoms: _38  and  _39
REMARK   18  A    between atoms: _41  and  _43
REMARK   19  A    between atoms: _43  and  _44
REMARK   20  A    between atoms: _43  and  _46
REMARK   21  A    between atoms: _46  and  _47
REMARK   22  A    between atoms: _57  and  _59
REMARK   23  A    between atoms: _59  and  _60
REMARK   24  A    between atoms: _59  and  _62
REMARK   25  A    between atoms: _62  and  _63
REMARK   26  A    between atoms: _66  and  _68
REMARK   27  A    between atoms: _68  and  _69
REMARK   28  A    between atoms: _68  and  _71
REMARK   29  A    between atoms: _71  and  _72
REMARK   30  A    between atoms: _75  and  _77
REMARK   31  A    between atoms: _77  and  _78
REMARK   32  A    between atoms: _77  and  _80
REMARK   33  A    between atoms: _80  and  _81
REMARK   34  A    between atoms: _84  and  _86
REMARK   35  A    between atoms: _86  and  _87
REMARK   36  A    between atoms: _89  and  _91
REMARK   37  A    between atoms: _91  and  _92
REMARK   38  A    between atoms: _91  and  _94
REMARK   39  A    between atoms: _94  and  _95
REMARK   40  A    between atoms: _98  and  _100
REMARK   41  A    between atoms: _100  and  _101
REMARK   42  A    between atoms: _100  and  _103
REMARK   43  A    between atoms: _103  and  _104
REMARK   44  A    between atoms: _107  and  _109
REMARK   45  A    between atoms: _109  and  _110
REMARK   46  A    between atoms: _113  and  _115
REMARK   47  A    between atoms: _115  and  _116
REMARK   48  A    between atoms: _115  and  _118
REMARK   49  A    between atoms: _118  and  _119
REMARK   50  A    between atoms: _119  and  _120
REMARK   51  A    between atoms: _120  and  _121
REMARK   52  A    between atoms: _121  and  _122
REMARK   53  A    between atoms: _126  and  _128
REMARK   54  A    between atoms: _128  and  _129
REMARK   55  A    between atoms: _131  and  _133
REMARK   56  A    between atoms: _133  and  _134
REMARK   57  A    between atoms: _133  and  _136
REMARK   58  A    between atoms: _136  and  _137
REMARK   59  A    between atoms: _140  and  _142
REMARK   60  A    between atoms: _142  and  _143
REMARK   61  A    between atoms: _142  and  _145
REMARK   62  A    between atoms: _145  and  _146
REMARK   63  A    between atoms: _149  and  _151
REMARK   64  A    between atoms: _151  and  _152
REMARK   65  A    between atoms: _151  and  _154
REMARK   66  A    between atoms: _154  and  _155
REMARK   67  A    between atoms: _161  and  _163
REMARK   68  A    between atoms: _163  and  _164
REMARK   69  A    between atoms: _167  and  _169
REMARK   70  A    between atoms: _169  and  _170
REMARK   71  A    between atoms: _169  and  _172
REMARK   72  A    between atoms: _172  and  _173
REMARK   73  A    between atoms: _175  and  _177
REMARK   74  A    between atoms: _177  and  _178
REMARK   75  A    between atoms: _177  and  _180
REMARK   76  A    between atoms: _180  and  _181
REMARK   77  A    between atoms: _181  and  _182
REMARK   78  A    between atoms: _182  and  _183
REMARK   79  A    between atoms: _183  and  _184
REMARK   80  A    between atoms: _188  and  _190
REMARK   81  A    between atoms: _190  and  _191
REMARK   82  A    between atoms: _190  and  _193
REMARK   83  A    between atoms: _193  and  _194
REMARK   84  A    between atoms: _194  and  _195
REMARK   85  A    between atoms: _200  and  _202
REMARK   86  A    between atoms: _202  and  _203
REMARK   87  A    between atoms: _202  and  _205
REMARK   88  A    between atoms: _205  and  _206
REMARK   89  A    between atoms: _209  and  _211
REMARK   90  A    between atoms: _211  and  _212
REMARK   91  A    between atoms: _211  and  _214
REMARK   92  A    between atoms: _214  and  _215
REMARK   93  A    between atoms: _218  and  _220
REMARK   94  A    between atoms: _220  and  _221
REMARK   95  A    between atoms: _220  and  _223
REMARK   96  A    between atoms: _223  and  _224
REMARK   97  A    between atoms: _227  and  _229
REMARK   98  A    between atoms: _229  and  _230
REMARK   99  A    between atoms: _229  and  _232
REMARK  100  A    between atoms: _232  and  _233
REMARK  101  A    between atoms: _233  and  _234
REMARK  102  A    between atoms: _234  and  _235
REMARK  103  A    between atoms: _244  and  _246
REMARK  104  A    between atoms: _246  and  _247
REMARK  105  A    between atoms: _246  and  _249
REMARK  106  A    between atoms: _249  and  _250
REMARK  107  A    between atoms: _253  and  _255
REMARK  108  A    between atoms: _255  and  _256
REMARK  109  A    between atoms: _255  and  _258
REMARK  110  A    between atoms: _258  and  _259
REMARK  111  A    between atoms: _259  and  _260
REMARK  112  A    between atoms: _260  and  _261
REMARK  113  A    between atoms: _261  and  _262
REMARK  114  A    between atoms: _266  and  _268
REMARK  115  A    between atoms: _268  and  _269
REMARK  116  A    between atoms: _268  and  _271
REMARK  117  A    between atoms: _271  and  _272
REMARK  118  A    between atoms: _272  and  _273
REMARK  119  A    between atoms: _275  and  _277
REMARK  120  A    between atoms: _277  and  _278
REMARK  121  A    between atoms: _277  and  _280
REMARK  122  A    between atoms: _280  and  _281
REMARK  123  A    between atoms: _281  and  _282
REMARK  124  A    between atoms: _285  and  _287
REMARK  125  A    between atoms: _287  and  _288
REMARK  126  A    between atoms: _287  and  _290
REMARK  127  A    between atoms: _292  and  _294
REMARK  128  A    between atoms: _294  and  _295
REMARK  129  A    between atoms: _294  and  _297
REMARK  130  A    between atoms: _297  and  _298
REMARK  131  A    between atoms: _301  and  _303
REMARK  132  A    between atoms: _303  and  _304
REMARK  133  A    between atoms: _303  and  _306
REMARK  134  A    between atoms: _306  and  _307
REMARK  135  A    between atoms: _310  and  _312
REMARK  136  A    between atoms: _312  and  _313
REMARK  137  A    between atoms: _312  and  _315
REMARK  138  A    between atoms: _315  and  _316
REMARK  139  A    between atoms: _319  and  _321
REMARK  140  A    between atoms: _321  and  _322
REMARK  141  A    between atoms: _321  and  _324
REMARK  142  A    between atoms: _324  and  _325
REMARK  143  A    between atoms: _330  and  _331
REMARK  144  A    between atoms: _333  and  _335
REMARK  145  A    between atoms: _335  and  _336
REMARK  146  A    between atoms: _335  and  _338
REMARK  147  A    between atoms: _338  and  _339
REMARK  148  A    between atoms: _342  and  _344
REMARK  149  A    between atoms: _344  and  _345
REMARK  150  A    between atoms: _344  and  _347
REMARK  151  A    between atoms: _349  and  _351
REMARK  152  A    between atoms: _351  and  _352
REMARK  153  A    between atoms: _351  and  _354
REMARK  154  A    between atoms: _354  and  _355
REMARK  155  A    between atoms: _358  and  _360
REMARK  156  A    between atoms: _360  and  _361
REMARK  157  A    between atoms: _363  and  _365
REMARK  158  A    between atoms: _365  and  _366
REMARK  159  A    between atoms: _365  and  _368
REMARK  160  A    between atoms: _368  and  _369
REMARK  161  A    between atoms: _369  and  _370
REMARK  162  A    between atoms: _370  and  _371
REMARK  163  A    between atoms: _371  and  _372
REMARK  164  A    between atoms: _376  and  _378
REMARK  165  A    between atoms: _378  and  _379
REMARK  166  A    between atoms: _378  and  _381
REMARK  167  A    between atoms: _381  and  _382
REMARK  168  A    between atoms: _387  and  _389
REMARK  169  A    between atoms: _389  and  _390
REMARK  170  A    between atoms: _389  and  _392
REMARK  171  A    between atoms: _392  and  _393
REMARK  172  A    between atoms: _396  and  _398
REMARK  173  A    between atoms: _398  and  _399
REMARK  174  A    between atoms: _398  and  _401
REMARK  175  A    between atoms: _401  and  _402
REMARK  176  A    between atoms: _412  and  _414
REMARK  177  A    between atoms: _414  and  _415
REMARK  178  A    between atoms: _414  and  _417
REMARK  179  A    between atoms: _417  and  _418
REMARK  180  A    between atoms: _418  and  _419
REMARK  181  A    between atoms: _419  and  _420
REMARK  182  A    between atoms: _420  and  _421
REMARK  183  A    between atoms: _426  and  _427
REMARK  184  A    between atoms: _432  and  _434
REMARK  185  A    between atoms: _434  and  _435
REMARK  186  A    between atoms: _438  and  _440
REMARK  187  A    between atoms: _440  and  _441
REMARK  188  A    between atoms: _440  and  _443
REMARK  189  A    between atoms: _446  and  _448
REMARK  190  A    between atoms: _448  and  _449
REMARK  191  A    between atoms: _448  and  _451
REMARK  192  A    between atoms: _451  and  _452
REMARK  193  A    between atoms: _452  and  _453
REMARK  194  A    between atoms: _456  and  _458
REMARK  195  A    between atoms: _458  and  _459
REMARK  196  A    between atoms: _462  and  _464
REMARK  197  A    between atoms: _464  and  _465
REMARK  198  A    between atoms: _464  and  _467
REMARK  199  A    between atoms: _467  and  _468
REMARK  200  A    between atoms: _473  and  _474
REMARK  201  A    between atoms: _476  and  _478
REMARK  202  A    between atoms: _478  and  _479
REMARK  203  A    between atoms: _481  and  _483
REMARK  204  A    between atoms: _483  and  _484
REMARK  205  A    between atoms: _483  and  _486
REMARK  206  A    between atoms: _486  and  _487
REMARK  207  A    between atoms: _487  and  _488
REMARK  208  A    between atoms: _491  and  _493
REMARK  209  A    between atoms: _493  and  _494
REMARK  210  A    between atoms: _493  and  _496
REMARK  211  A    between atoms: _496  and  _497
REMARK  212  A    between atoms: _503  and  _505
REMARK  213  A    between atoms: _505  and  _506
REMARK  214  A    between atoms: _505  and  _508
REMARK  215  A    between atoms: _508  and  _509
REMARK  216  A    between atoms: _512  and  _514
REMARK  217  A    between atoms: _514  and  _515
REMARK  218  A    between atoms: _514  and  _517
REMARK  219  A    between atoms: _519  and  _521
REMARK  220  A    between atoms: _521  and  _522
REMARK  221  A    between atoms: _521  and  _524
REMARK  222  A    between atoms: _524  and  _525
REMARK  223  A    between atoms: _531  and  _533
REMARK  224  A    between atoms: _533  and  _534
REMARK  225  A    between atoms: _533  and  _536
REMARK  226  A    between atoms: _536  and  _537
REMARK  227  A    between atoms: _537  and  _538
REMARK  228  A    between atoms: _541  and  _543
REMARK  229  A    between atoms: _543  and  _544
REMARK  230  A    between atoms: _543  and  _546
REMARK  231  A    between atoms: _546  and  _547
REMARK  232  A    between atoms: _550  and  _552
REMARK  233  A    between atoms: _552  and  _553
REMARK  234  A    between atoms: _552  and  _555
REMARK  235  A    between atoms: _555  and  _556
REMARK  236  A    between atoms: _556  and  _557
REMARK  237  A    between atoms: _557  and  _558
REMARK  238  A    between atoms: _567  and  _569
REMARK  239  A    between atoms: _569  and  _570
REMARK  240  A    between atoms: _569  and  _572
REMARK  241  A    between atoms: _572  and  _573
REMARK  242  A    between atoms: _576  and  _578
REMARK  243  A    between atoms: _578  and  _579
REMARK  244  A    between atoms: _578  and  _581
REMARK  245  A    between atoms: _581  and  _582
REMARK  246  A    between atoms: _588  and  _590
REMARK  247  A    between atoms: _590  and  _591
REMARK  248  A    between atoms: _590  and  _593
REMARK  249  A    between atoms: _596  and  _598
REMARK  250  A    between atoms: _598  and  _599
REMARK  251  A    between atoms: _603  and  _604
REMARK  252  A    between atoms: _609  and  _611
REMARK  253  A    between atoms: _611  and  _612
REMARK  254  A    between atoms: _611  and  _614
REMARK  255  A    between atoms: _614  and  _615
REMARK  256  A    between atoms: _618  and  _620
REMARK  257  A    between atoms: _620  and  _621
REMARK  258  A    between atoms: _620  and  _623
REMARK  259  A    between atoms: _623  and  _624
REMARK  260  A    between atoms: _631  and  _632
REMARK  261  A    between atoms: _637  and  _639
REMARK  262  A    between atoms: _639  and  _640
REMARK  263  A    between atoms: _639  and  _642
REMARK  264  A    between atoms: _645  and  _647
REMARK  265  A    between atoms: _647  and  _648
REMARK  266  A    between atoms: _651  and  _653
REMARK  267  A    between atoms: _653  and  _654
REMARK  268  A    between atoms: _653  and  _656
REMARK  269  A    between atoms: _656  and  _657
REMARK  270  A    between atoms: _662  and  _663
REMARK  271  A    between atoms: _665  and  _667
REMARK  272  A    between atoms: _667  and  _668
REMARK  273  A    between atoms: _667  and  _670
REMARK  274  A    between atoms: _670  and  _671
REMARK  275  A    between atoms: _676  and  _678
REMARK  276  A    between atoms: _678  and  _679
REMARK  277  A    between atoms: _678  and  _681
REMARK  278  A    between atoms: _681  and  _682
REMARK  279  A    between atoms: _685  and  _687
REMARK  280  A    between atoms: _687  and  _688
REMARK  281  A    between atoms: _687  and  _690
REMARK  282  A    between atoms: _690  and  _691
REMARK  283  A    between atoms: _694  and  _696
REMARK  284  A    between atoms: _696  and  _697
REMARK  285  A    between atoms: _696  and  _699
REMARK  286  A    between atoms: _699  and  _700
REMARK  287  A    between atoms: _700  and  _701
REMARK  288  A    between atoms: _701  and  _702
REMARK  289  A    between atoms: _702  and  _703
REMARK  290  A    between atoms: _707  and  _709
REMARK  291  A    between atoms: _709  and  _710
REMARK  292  A    between atoms: _709  and  _712
REMARK  293  A    between atoms: _712  and  _713
REMARK  294  A    between atoms: _719  and  _721
REMARK  295  A    between atoms: _721  and  _722
REMARK  296  A    between atoms: _721  and  _724
REMARK  297  A    between atoms: _724  and  _725
REMARK  298  A    between atoms: _728  and  _730
REMARK  299  A    between atoms: _730  and  _731
REMARK  300  A    between atoms: _730  and  _733
REMARK  301  A    between atoms: _733  and  _734
REMARK  302  A    between atoms: _736  and  _738
REMARK  303  A    between atoms: _738  and  _739
REMARK  304  A    between atoms: _738  and  _741
REMARK  305  A    between atoms: _741  and  _742
REMARK  306  A    between atoms: _745  and  _747
REMARK  307  A    between atoms: _747  and  _748
REMARK  308  A    between atoms: _747  and  _750
REMARK  309  A    between atoms: _750  and  _751
REMARK  310  A    between atoms: _751  and  _752
REMARK  311  A    between atoms: _752  and  _753
REMARK  312  A    between atoms: _762  and  _764
REMARK  313  A    between atoms: _764  and  _765
REMARK  314  A    between atoms: _764  and  _767
REMARK  315  A    between atoms: _767  and  _768
REMARK  316  A    between atoms: _771  and  _773
REMARK  317  A    between atoms: _773  and  _774
REMARK  318  A    between atoms: _773  and  _776
REMARK  319  A    between atoms: _776  and  _777
REMARK  320  A    between atoms: _777  and  _778
REMARK  321  A    between atoms: _780  and  _782
REMARK  322  A    between atoms: _782  and  _783
REMARK  323  A    between atoms: _782  and  _785
REMARK  324  A    between atoms: _788  and  _790
REMARK  325  A    between atoms: _790  and  _791
REMARK  326  A    between atoms: _790  and  _793
REMARK  327  A    between atoms: _793  and  _794
REMARK                            x       y       z     vdW  Elec       q    Type
REMARK                         _______ _______ _______ _____ _____    ______ ____
ROOT
ATOM      1  CA  ARG A   2      88.111  -4.204  14.887  0.00  0.00    +0.137 C 
ENDROOT
BRANCH   1   3
ATOM      2  C   THR A   1      86.344  -4.451  13.254  0.00  0.00    +0.241 C 
ATOM      3  N   ARG A   2      86.711  -4.132  14.493  0.00  0.00    -0.298 N 
ATOM      4  H   ARG A   2      85.994  -3.830  15.183  0.00  0.00    +0.150 HD
ATOM      5  O   THR A   1      87.141  -4.823  12.409  0.00  0.00    -0.274 OA
BRANCH   2   6
ATOM      6  CA  THR A   1      84.877  -4.324  12.914  0.00  0.00    +0.172 C 
BRANCH   6   7
ATOM      7  N   THR A   1      84.061  -4.850  13.986  0.00  0.00    -0.236 NA
ATOM      8  H   THR A   1      83.439  -4.212  14.522  0.00  0.00    +0.142 HD
ENDBRANCH   6   7
BRANCH   6   9
ATOM      9  CB  THR A   1      84.536  -2.857  12.641  0.00  0.00    +0.135 C 
ATOM     10  CG2 THR A   1      85.466  -2.230  11.624  0.00  0.00    +0.034 C 
BRANCH   9  11
ATOM     11  OG1 THR A   1      83.175  -2.798  12.199  0.00  0.00    -0.383 OA
ATOM     12  HG1 THR A   1      82.929  -1.857  12.015  0.00  0.00    +0.210 HD
ENDBRANCH   9  11
ENDBRANCH   6   9
ENDBRANCH   2   6
ENDBRANCH   1   3
BRANCH   1  13
ATOM     13  C   ARG A   2      88.679  -5.607  14.704  0.00  0.00    +0.227 C 
ATOM     14  O   ARG A   2      89.819  -5.756  14.276  0.00  0.00    -0.286 OA
ENDBRANCH   1  13
BRANCH   1  15
ATOM     15  CB  ARG A   2      88.298  -3.695  16.332  0.00  0.00    +0.031 C 
BRANCH  15  16
ATOM     16  CG  ARG A   2      88.114  -2.173  16.414  0.00  0.00    +0.045 C 
BRANCH  16  17
ATOM     17  CD  ARG A   2      88.337  -1.609  17.787  0.00  0.00    +0.174 C 
BRANCH  17  18
ATOM     18  NE  ARG A   2      89.713  -1.795  18.247  0.00  0.00    -0.265 N 
ATOM     19  CZ  ARG A   2      90.188  -1.275  19.372  0.00  0.00    +0.342 C 
ATOM     20  NH2 ARG A   2      89.400  -0.531  20.140  0.00  0.00    -0.292 N 
ATOM     21 HH21 ARG A   2      89.769  -0.122  21.022  0.00  0.00    +0.255 HD
ATOM     22 HH22 ARG A   2      88.414  -0.357  19.859  0.00  0.00    +0.255 HD
ATOM     23  NH1 ARG A   2      91.446  -1.497  19.736  0.00  0.00    -0.292 N 
ATOM     24 HH11 ARG A   2      91.812  -1.087  20.619  0.00  0.00    +0.255 HD
ATOM     25 HH12 ARG A   2      92.065  -2.081  19.138  0.00  0.00    +0.255 HD
ATOM     26  HE  ARG A   2      90.354  -2.366  17.660  0.00  0.00    +0.259 HD
ENDBRANCH  17  18
ENDBRANCH  16  17
ENDBRANCH  15  16
ENDBRANCH   1  15
TORSDOF 10
REMARK  Name = ../refined-set-2016/4omj/4omj_pocket.pdb
REMARK  327 active torsions:
REMARK  status: ('A' for Active; 'I' for Inactive)
REMARK    1  A    between atoms: _1  and  _3
REMARK    2  A    between atoms: _3  and  _4
REMARK    3  A    between atoms: _3  and  _6
REMARK    4  A    between atoms: _6  and  _7
REMARK    5  A    between atoms: _10  and  _12
REMARK    6  A    between atoms: _12  and  _13
REMARK    7  A    between atoms: _12  and  _15
REMARK    8  A    between atoms: _15  and  _16
REMARK    9  A    between atoms: _21  and  _22
REMARK   10  A    between atoms: _24  and  _26
REMARK   11  A    between atoms: _26  and  _27
REMARK   12  A    between atoms: _26  and  _29
REMARK   13  A    between atoms: _29  and  _30
REMARK   14  A    between atoms: _33  and  _35
REMARK   15  A    between atoms: _35  and  _36
REMARK   16  A    between atoms: _35  and  _38
REMARK   17  A    between atoms: _38  and  _39
REMARK   18  A    between atoms: _41  and  _43
REMARK   19  A    between atoms: _43  and  _44
REMARK   20  A    between atoms: _43  and  _46
REMARK   21  A    between atoms: _46  and  _47
REMARK   22  A    between atoms: _57  and  _59
REMARK   23  A    between atoms: _59  and  _60
REMARK   24  A    between atoms: _59  and  _62
REMARK   25  A    between atoms: _62  and  _63
REMARK   26  A    between atoms: _66  and  _68
REMARK   27  A    between atoms: _68  and  _69
REMARK   28  A    between atoms: _68  and  _71
REMARK   29  A    between atoms: _71  and  _72
REMARK   30  A    between atoms: _75  and  _77
REMARK   31  A    between atoms: _77  and  _78
REMARK   32  A    between atoms: _77  and  _80
REMARK   33  A    between atoms: _80  and  _81
REMARK   34  A    between atoms: _84  and  _86
REMARK   35  A    between atoms: _86  and  _87
REMARK   36  A    between atoms: _89  and  _91
REMARK   37  A    between atoms: _91  and  _92
REMARK   38  A    between atoms: _91  and  _94
REMARK   39  A    between atoms: _94  and  _95
REMARK   40  A    between atoms: _98  and  _100
REMARK   41  A    between atoms: _100  and  _101
REMARK   42  A    between atoms: _100  and  _103
REMARK   43  A    between atoms: _103  and  _104
REMARK   44  A    between atoms: _107  and  _109
REMARK   45  A    between atoms: _109  and  _110
REMARK   46  A    between atoms: _113  and  _115
REMARK   47  A    between atoms: _115  and  _116
REMARK   48  A    between atoms: _115  and  _118
REMARK   49  A    between atoms: _118  and  _119
REMARK   50  A    between atoms: _119  and  _120
REMARK   51  A    between atoms: _120  and  _121
REMARK   52  A    between atoms: _121  and  _122
REMARK   53  A    between atoms: _126  and  _128
REMARK   54  A    between atoms: _128  and  _129
REMARK   55  A    between atoms: _131  and  _133
REMARK   56  A    between atoms: _133  and  _134
REMARK   57  A    between atoms: _133  and  _136
REMARK   58  A    between atoms: _136  and  _137
REMARK   59  A    between atoms: _140  and  _142
REMARK   60  A    between atoms: _142  and  _143
REMARK   61  A    between atoms: _142  and  _145
REMARK   62  A    between atoms: _145  and  _146
REMARK   63  A    between atoms: _149  and  _151
REMARK   64  A    between atoms: _151  and  _152
REMARK   65  A    between atoms: _151  and  _154
REMARK   66  A    between atoms: _154  and  _155
REMARK   67  A    between atoms: _161  and  _163
REMARK   68  A    between atoms: _163  and  _164
REMARK   69  A    between atoms: _167  and  _169
REMARK   70  A    between atoms: _169  and  _170
REMARK   71  A    between atoms: _169  and  _172
REMARK   72  A    between atoms: _172  and  _173
REMARK   73  A    between atoms: _175  and  _177
REMARK   74  A    between atoms: _177  and  _178
REMARK   75  A    between atoms: _177  and  _180
REMARK   76  A    between atoms: _180  and  _181
REMARK   77  A    between atoms: _181  and  _182
REMARK   78  A    between atoms: _182  and  _183
REMARK   79  A    between atoms: _183  and  _184
REMARK   80  A    between atoms: _188  and  _190
REMARK   81  A    between atoms: _190  and  _191
REMARK   82  A    between atoms: _190  and  _193
REMARK   83  A    between atoms: _193  and  _194
REMARK   84  A    between atoms: _194  and  _195
REMARK   85  A    between atoms: _200  and  _202
REMARK   86  A    between atoms: _202  and  _203
REMARK   87  A    between atoms: _202  and  _205
REMARK   88  A    between atoms: _205  and  _206
REMARK   89  A    between atoms: _209  and  _211
REMARK   90  A    between atoms: _211  and  _212
REMARK   91  A    between atoms: _211  and  _214
REMARK   92  A    between atoms: _214  and  _215
REMARK   93  A    between atoms: _218  and  _220
REMARK   94  A    between atoms: _220  and  _221
REMARK   95  A    between atoms: _220  and  _223
REMARK   96  A    between atoms: _223  and  _224
REMARK   97  A    between atoms: _227  and  _229
REMARK   98  A    between atoms: _229  and  _230
REMARK   99  A    between atoms: _229  and  _232
REMARK  100  A    between atoms: _232  and  _233
REMARK  101  A    between atoms: _233  and  _234
REMARK  102  A    between atoms: _234  and  _235
REMARK  103  A    between atoms: _244  and  _246
REMARK  104  A    between atoms: _246  and  _247
REMARK  105  A    between atoms: _246  and  _249
REMARK  106  A    between atoms: _249  and  _250
REMARK  107  A    between atoms: _253  and  _255
REMARK  108  A    between atoms: _255  and  _256
REMARK  109  A    between atoms: _255  and  _258
REMARK  110  A    between atoms: _258  and  _259
REMARK  111  A    between atoms: _259  and  _260
REMARK  112  A    between atoms: _260  and  _261
REMARK  113  A    between atoms: _261  and  _262
REMARK  114  A    between atoms: _266  and  _268
REMARK  115  A    between atoms: _268  and  _269
REMARK  116  A    between atoms: _268  and  _271
REMARK  117  A    between atoms: _271  and  _272
REMARK  118  A    between atoms: _272  and  _273
REMARK  119  A    between atoms: _275  and  _277
REMARK  120  A    between atoms: _277  and  _278
REMARK  121  A    between atoms: _277  and  _280
REMARK  122  A    between atoms: _280  and  _281
REMARK  123  A    between atoms: _281  and  _282
REMARK  124  A    between atoms: _285  and  _287
REMARK  125  A    between atoms: _287  and  _288
REMARK  126  A    between atoms: _287  and  _290
REMARK  127  A    between atoms: _292  and  _294
REMARK  128  A    between atoms: _294  and  _295
REMARK  129  A    between atoms: _294  and  _297
REMARK  130  A    between atoms: _297  and  _298
REMARK  131  A    between atoms: _301  and  _303
REMARK  132  A    between atoms: _303  and  _304
REMARK  133  A    between atoms: _303  and  _306
REMARK  134  A    between atoms: _306  and  _307
REMARK  135  A    between atoms: _310  and  _312
REMARK  136  A    between atoms: _312  and  _313
REMARK  137  A    between atoms: _312  and  _315
REMARK  138  A    between atoms: _315  and  _316
REMARK  139  A    between atoms: _319  and  _321
REMARK  140  A    between atoms: _321  and  _322
REMARK  141  A    between atoms: _321  and  _324
REMARK  142  A    between atoms: _324  and  _325
REMARK  143  A    between atoms: _330  and  _331
REMARK  144  A    between atoms: _333  and  _335
REMARK  145  A    between atoms: _335  and  _336
REMARK  146  A    between atoms: _335  and  _338
REMARK  147  A    between atoms: _338  and  _339
REMARK  148  A    between atoms: _342  and  _344
REMARK  149  A    between atoms: _344  and  _345
REMARK  150  A    between atoms: _344  and  _347
REMARK  151  A    between atoms: _349  and  _351
REMARK  152  A    between atoms: _351  and  _352
REMARK  153  A    between atoms: _351  and  _354
REMARK  154  A    between atoms: _354  and  _355
REMARK  155  A    between atoms: _358  and  _360
REMARK  156  A    between atoms: _360  and  _361
REMARK  157  A    between atoms: _363  and  _365
REMARK  158  A    between atoms: _365  and  _366
REMARK  159  A    between atoms: _365  and  _368
REMARK  160  A    between atoms: _368  and  _369
REMARK  161  A    between atoms: _369  and  _370
REMARK  162  A    between atoms: _370  and  _371
REMARK  163  A    between atoms: _371  and  _372
REMARK  164  A    between atoms: _376  and  _378
REMARK  165  A    between atoms: _378  and  _379
REMARK  166  A    between atoms: _378  and  _381
REMARK  167  A    between atoms: _381  and  _382
REMARK  168  A    between atoms: _387  and  _389
REMARK  169  A    between atoms: _389  and  _390
REMARK  170  A    between atoms: _389  and  _392
REMARK  171  A    between atoms: _392  and  _393
REMARK  172  A    between atoms: _396  and  _398
REMARK  173  A    between atoms: _398  and  _399
REMARK  174  A    between atoms: _398  and  _401
REMARK  175  A    between atoms: _401  and  _402
REMARK  176  A    between atoms: _412  and  _414
REMARK  177  A    between atoms: _414  and  _415
REMARK  178  A    between atoms: _414  and  _417
REMARK  179  A    between atoms: _417  and  _418
REMARK  180  A    between atoms: _418  and  _419
REMARK  181  A    between atoms: _419  and  _420
REMARK  182  A    between atoms: _420  and  _421
REMARK  183  A    between atoms: _426  and  _427
REMARK  184  A    between atoms: _432  and  _434
REMARK  185  A    between atoms: _434  and  _435
REMARK  186  A    between atoms: _438  and  _440
REMARK  187  A    between atoms: _440  and  _441
REMARK  188  A    between atoms: _440  and  _443
REMARK  189  A    between atoms: _446  and  _448
REMARK  190  A    between atoms: _448  and  _449
REMARK  191  A    between atoms: _448  and  _451
REMARK  192  A    between atoms: _451  and  _452
REMARK  193  A    between atoms: _452  and  _453
REMARK  194  A    between atoms: _456  and  _458
REMARK  195  A    between atoms: _458  and  _459
REMARK  196  A    between atoms: _462  and  _464
REMARK  197  A    between atoms: _464  and  _465
REMARK  198  A    between atoms: _464  and  _467
REMARK  199  A    between atoms: _467  and  _468
REMARK  200  A    between atoms: _473  and  _474
REMARK  201  A    between atoms: _476  and  _478
REMARK  202  A    between atoms: _478  and  _479
REMARK  203  A    between atoms: _481  and  _483
REMARK  204  A    between atoms: _483  and  _484
REMARK  205  A    between atoms: _483  and  _486
REMARK  206  A    between atoms: _486  and  _487
REMARK  207  A    between atoms: _487  and  _488
REMARK  208  A    between atoms: _491  and  _493
REMARK  209  A    between atoms: _493  and  _494
REMARK  210  A    between atoms: _493  and  _496
REMARK  211  A    between atoms: _496  and  _497
REMARK  212  A    between atoms: _503  and  _505
REMARK  213  A    between atoms: _505  and  _506
REMARK  214  A    between atoms: _505  and  _508
REMARK  215  A    between atoms: _508  and  _509
REMARK  216  A    between atoms: _512  and  _514
REMARK  217  A    between atoms: _514  and  _515
REMARK  218  A    between atoms: _514  and  _517
REMARK  219  A    between atoms: _519  and  _521
REMARK  220  A    between atoms: _521  and  _522
REMARK  221  A    between atoms: _521  and  _524
REMARK  222  A    between atoms: _524  and  _525
REMARK  223  A    between atoms: _531  and  _533
REMARK  224  A    between atoms: _533  and  _534
REMARK  225  A    between atoms: _533  and  _536
REMARK  226  A    between atoms: _536  and  _537
REMARK  227  A    between atoms: _537  and  _538
REMARK  228  A    between atoms: _541  and  _543
REMARK  229  A    between atoms: _543  and  _544
REMARK  230  A    between atoms: _543  and  _546
REMARK  231  A    between atoms: _546  and  _547
REMARK  232  A    between atoms: _550  and  _552
REMARK  233  A    between atoms: _552  and  _553
REMARK  234  A    between atoms: _552  and  _555
REMARK  235  A    between atoms: _555  and  _556
REMARK  236  A    between atoms: _556  and  _557
REMARK  237  A    between atoms: _557  and  _558
REMARK  238  A    between atoms: _567  and  _569
REMARK  239  A    between atoms: _569  and  _570
REMARK  240  A    between atoms: _569  and  _572
REMARK  241  A    between atoms: _572  and  _573
REMARK  242  A    between atoms: _576  and  _578
REMARK  243  A    between atoms: _578  and  _579
REMARK  244  A    between atoms: _578  and  _581
REMARK  245  A    between atoms: _581  and  _582
REMARK  246  A    between atoms: _588  and  _590
REMARK  247  A    between atoms: _590  and  _591
REMARK  248  A    between atoms: _590  and  _593
REMARK  249  A    between atoms: _596  and  _598
REMARK  250  A    between atoms: _598  and  _599
REMARK  251  A    between atoms: _603  and  _604
REMARK  252  A    between atoms: _609  and  _611
REMARK  253  A    between atoms: _611  and  _612
REMARK  254  A    between atoms: _611  and  _614
REMARK  255  A    between atoms: _614  and  _615
REMARK  256  A    between atoms: _618  and  _620
REMARK  257  A    between atoms: _620  and  _621
REMARK  258  A    between atoms: _620  and  _623
REMARK  259  A    between atoms: _623  and  _624
REMARK  260  A    between atoms: _631  and  _632
REMARK  261  A    between atoms: _637  and  _639
REMARK  262  A    between atoms: _639  and  _640
REMARK  263  A    between atoms: _639  and  _642
REMARK  264  A    between atoms: _645  and  _647
REMARK  265  A    between atoms: _647  and  _648
REMARK  266  A    between atoms: _651  and  _653
REMARK  267  A    between atoms: _653  and  _654
REMARK  268  A    between atoms: _653  and  _656
REMARK  269  A    between atoms: _656  and  _657
REMARK  270  A    between atoms: _662  and  _663
REMARK  271  A    between atoms: _665  and  _667
REMARK  272  A    between atoms: _667  and  _668
REMARK  273  A    between atoms: _667  and  _670
REMARK  274  A    between atoms: _670  and  _671
REMARK  275  A    between atoms: _676  and  _678
REMARK  276  A    between atoms: _678  and  _679
REMARK  277  A    between atoms: _678  and  _681
REMARK  278  A    between atoms: _681  and  _682
REMARK  279  A    between atoms: _685  and  _687
REMARK  280  A    between atoms: _687  and  _688
REMARK  281  A    between atoms: _687  and  _690
REMARK  282  A    between atoms: _690  and  _691
REMARK  283  A    between atoms: _694  and  _696
REMARK  284  A    between atoms: _696  and  _697
REMARK  285  A    between atoms: _696  and  _699
REMARK  286  A    between atoms: _699  and  _700
REMARK  287  A    between atoms: _700  and  _701
REMARK  288  A    between atoms: _701  and  _702
REMARK  289  A    between atoms: _702  and  _703
REMARK  290  A    between atoms: _707  and  _709
REMARK  291  A    between atoms: _709  and  _710
REMARK  292  A    between atoms: _709  and  _712
REMARK  293  A    between atoms: _712  and  _713
REMARK  294  A    between atoms: _719  and  _721
REMARK  295  A    between atoms: _721  and  _722
REMARK  296  A    between atoms: _721  and  _724
REMARK  297  A    between atoms: _724  and  _725
REMARK  298  A    between atoms: _728  and  _730
REMARK  299  A    between atoms: _730  and  _731
REMARK  300  A    between atoms: _730  and  _733
REMARK  301  A    between atoms: _733  and  _734
REMARK  302  A    between atoms: _736  and  _738
REMARK  303  A    between atoms: _738  and  _739
REMARK  304  A    between atoms: _738  and  _741
REMARK  305  A    between atoms: _741  and  _742
REMARK  306  A    between atoms: _745  and  _747
REMARK  307  A    between atoms: _747  and  _748
REMARK  308  A    between atoms: _747  and  _750
REMARK  309  A    between atoms: _750  and  _751
REMARK  310  A    between atoms: _751  and  _752
REMARK  311  A    between atoms: _752  and  _753
REMARK  312  A    between atoms: _762  and  _764
REMARK  313  A    between atoms: _764  and  _765
REMARK  314  A    between atoms: _764  and  _767
REMARK  315  A    between atoms: _767  and  _768
REMARK  316  A    between atoms: _771  and  _773
REMARK  317  A    between atoms: _773  and  _774
REMARK  318  A    between atoms: _773  and  _776
REMARK  319  A    between atoms: _776  and  _777
REMARK  320  A    between atoms: _777  and  _778
REMARK  321  A    between atoms: _780  and  _782
REMARK  322  A    between atoms: _782  and  _783
REMARK  323  A    between atoms: _782  and  _785
REMARK  324  A    between atoms: _788  and  _790
REMARK  325  A    between atoms: _790  and  _791
REMARK  326  A    between atoms: _790  and  _793
REMARK  327  A    between atoms: _793  and  _794
REMARK                            x       y       z     vdW  Elec       q    Type
REMARK                         _______ _______ _______ _____ _____    ______ ____
ROOT
ATOM      1  CA  MET A   2      94.169  -7.237   9.406  0.00  0.00    +0.149 C 
ENDROOT
BRANCH   1   4
ATOM      2  C   ILE A   1      92.276  -6.267  10.631  0.00  0.00    +0.238 C 
ATOM      3  O   ILE A   1      92.708  -6.596  11.741  0.00  0.00    -0.274 OA
ATOM      4  N   MET A   2      92.892  -6.531   9.482  0.00  0.00    -0.297 N 
ATOM      5  H   MET A   2      92.444  -6.220   8.596  0.00  0.00    +0.150 HD
BRANCH   2   6
ATOM      6  CA  ILE A   1      90.962  -5.513  10.500  0.00  0.00    +0.145 C 
BRANCH   6   7
ATOM      7  N   ILE A   1      89.881  -6.300  11.058  0.00  0.00    -0.238 NA
ATOM      8  H   ILE A   1      89.629  -6.178  12.060  0.00  0.00    +0.142 HD
ENDBRANCH   6   7
BRANCH   6   9
ATOM      9  CB  ILE A   1      91.049  -4.140  11.172  0.00  0.00    +0.025 C 
ATOM     10  CG2 ILE A   1      92.330  -3.415  10.749  0.00  0.00    +0.002 C 
BRANCH   9  11
ATOM     11  CG1 ILE A   1      89.829  -3.298  10.788  0.00  0.00    +0.002 C 
ATOM     12  CD1 ILE A   1      89.595  -2.070  11.643  0.00  0.00    +0.000 C 
ENDBRANCH   9  11
ENDBRANCH   6   9
ENDBRANCH   2   6
ENDBRANCH   1   4
BRANCH   1  13
ATOM     13  C   MET A   2      95.230  -6.332   8.801  0.00  0.00    +0.241 C 
ATOM     14  N   VAL A   3      96.257  -6.012   9.587  0.00  0.00    -0.298 N 
ATOM     15  H   VAL A   3      96.287  -6.375  10.561  0.00  0.00    +0.150 HD
ATOM     16  O   MET A   2      95.126  -5.929   7.644  0.00  0.00    -0.273 OA
BRANCH  14  17
ATOM     17  CA  VAL A   3      97.334  -5.166   9.107  0.00  0.00    +0.137 C 
BRANCH  17  18
ATOM     18  CB  VAL A   3      97.896  -4.294  10.230  0.00  0.00    +0.026 C 
ATOM     19  CG2 VAL A   3      96.788  -3.470  10.860  0.00  0.00    +0.002 C 
ATOM     20  CG1 VAL A   3      98.993  -3.397   9.700  0.00  0.00    +0.002 C 
ENDBRANCH  17  18
BRANCH  17  21
ATOM     21  C   VAL A   3      98.421  -6.054   8.490  0.00  0.00    +0.227 C 
ATOM     22  O   VAL A   3      99.034  -6.864   9.185  0.00  0.00    -0.286 OA
ENDBRANCH  17  21
ENDBRANCH  14  17
ENDBRANCH   1  13
BRANCH   1  23
ATOM     23  CB  MET A   2      94.031  -8.484   8.536  0.00  0.00    +0.041 C 
BRANCH  23  24
ATOM     24  CG  MET A   2      92.828  -9.327   8.860  0.00  0.00    +0.060 C 
BRANCH  24  25
ATOM     25  SD  MET A   2      92.910  -9.974  10.534  0.00  0.00    -0.139 S 
ATOM     26  CE  MET A   2      91.182 -10.160  10.928  0.00  0.00    +0.069 C 
ENDBRANCH  24  25
ENDBRANCH  23  24
ENDBRANCH   1  23
TORSDOF 12
REMARK  Name = ../refined-set-2016/4omj/4omj_pocket.pdb
REMARK  327 active torsions:
REMARK  status: ('A' for Active; 'I' for Inactive)
REMARK    1  A    between atoms: _1  and  _3
REMARK    2  A    between atoms: _3  and  _4
REMARK    3  A    between atoms: _3  and  _6
REMARK    4  A    between atoms: _6  and  _7
REMARK    5  A    between atoms: _10  and  _12
REMARK    6  A    between atoms: _12  and  _13
REMARK    7  A    between atoms: _12  and  _15
REMARK    8  A    between atoms: _15  and  _16
REMARK    9  A    between atoms: _21  and  _22
REMARK   10  A    between atoms: _24  and  _26
REMARK   11  A    between atoms: _26  and  _27
REMARK   12  A    between atoms: _26  and  _29
REMARK   13  A    between atoms: _29  and  _30
REMARK   14  A    between atoms: _33  and  _35
REMARK   15  A    between atoms: _35  and  _36
REMARK   16  A    between atoms: _35  and  _38
REMARK   17  A    between atoms: _38  and  _39
REMARK   18  A    between atoms: _41  and  _43
REMARK   19  A    between atoms: _43  and  _44
REMARK   20  A    between atoms: _43  and  _46
REMARK   21  A    between atoms: _46  and  _47
REMARK   22  A    between atoms: _57  and  _59
REMARK   23  A    between atoms: _59  and  _60
REMARK   24  A    between atoms: _59  and  _62
REMARK   25  A    between atoms: _62  and  _63
REMARK   26  A    between atoms: _66  and  _68
REMARK   27  A    between atoms: _68  and  _69
REMARK   28  A    between atoms: _68  and  _71
REMARK   29  A    between atoms: _71  and  _72
REMARK   30  A    between atoms: _75  and  _77
REMARK   31  A    between atoms: _77  and  _78
REMARK   32  A    between atoms: _77  and  _80
REMARK   33  A    between atoms: _80  and  _81
REMARK   34  A    between atoms: _84  and  _86
REMARK   35  A    between atoms: _86  and  _87
REMARK   36  A    between atoms: _89  and  _91
REMARK   37  A    between atoms: _91  and  _92
REMARK   38  A    between atoms: _91  and  _94
REMARK   39  A    between atoms: _94  and  _95
REMARK   40  A    between atoms: _98  and  _100
REMARK   41  A    between atoms: _100  and  _101
REMARK   42  A    between atoms: _100  and  _103
REMARK   43  A    between atoms: _103  and  _104
REMARK   44  A    between atoms: _107  and  _109
REMARK   45  A    between atoms: _109  and  _110
REMARK   46  A    between atoms: _113  and  _115
REMARK   47  A    between atoms: _115  and  _116
REMARK   48  A    between atoms: _115  and  _118
REMARK   49  A    between atoms: _118  and  _119
REMARK   50  A    between atoms: _119  and  _120
REMARK   51  A    between atoms: _120  and  _121
REMARK   52  A    between atoms: _121  and  _122
REMARK   53  A    between atoms: _126  and  _128
REMARK   54  A    between atoms: _128  and  _129
REMARK   55  A    between atoms: _131  and  _133
REMARK   56  A    between atoms: _133  and  _134
REMARK   57  A    between atoms: _133  and  _136
REMARK   58  A    between atoms: _136  and  _137
REMARK   59  A    between atoms: _140  and  _142
REMARK   60  A    between atoms: _142  and  _143
REMARK   61  A    between atoms: _142  and  _145
REMARK   62  A    between atoms: _145  and  _146
REMARK   63  A    between atoms: _149  and  _151
REMARK   64  A    between atoms: _151  and  _152
REMARK   65  A    between atoms: _151  and  _154
REMARK   66  A    between atoms: _154  and  _155
REMARK   67  A    between atoms: _161  and  _163
REMARK   68  A    between atoms: _163  and  _164
REMARK   69  A    between atoms: _167  and  _169
REMARK   70  A    between atoms: _169  and  _170
REMARK   71  A    between atoms: _169  and  _172
REMARK   72  A    between atoms: _172  and  _173
REMARK   73  A    between atoms: _175  and  _177
REMARK   74  A    between atoms: _177  and  _178
REMARK   75  A    between atoms: _177  and  _180
REMARK   76  A    between atoms: _180  and  _181
REMARK   77  A    between atoms: _181  and  _182
REMARK   78  A    between atoms: _182  and  _183
REMARK   79  A    between atoms: _183  and  _184
REMARK   80  A    between atoms: _188  and  _190
REMARK   81  A    between atoms: _190  and  _191
REMARK   82  A    between atoms: _190  and  _193
REMARK   83  A    between atoms: _193  and  _194
REMARK   84  A    between atoms: _194  and  _195
REMARK   85  A    between atoms: _200  and  _202
REMARK   86  A    between atoms: _202  and  _203
REMARK   87  A    between atoms: _202  and  _205
REMARK   88  A    between atoms: _205  and  _206
REMARK   89  A    between atoms: _209  and  _211
REMARK   90  A    between atoms: _211  and  _212
REMARK   91  A    between atoms: _211  and  _214
REMARK   92  A    between atoms: _214  and  _215
REMARK   93  A    between atoms: _218  and  _220
REMARK   94  A    between atoms: _220  and  _221
REMARK   95  A    between atoms: _220  and  _223
REMARK   96  A    between atoms: _223  and  _224
REMARK   97  A    between atoms: _227  and  _229
REMARK   98  A    between atoms: _229  and  _230
REMARK   99  A    between atoms: _229  and  _232
REMARK  100  A    between atoms: _232  and  _233
REMARK  101  A    between atoms: _233  and  _234
REMARK  102  A    between atoms: _234  and  _235
REMARK  103  A    between atoms: _244  and  _246
REMARK  104  A    between atoms: _246  and  _247
REMARK  105  A    between atoms: _246  and  _249
REMARK  106  A    between atoms: _249  and  _250
REMARK  107  A    between atoms: _253  and  _255
REMARK  108  A    between atoms: _255  and  _256
REMARK  109  A    between atoms: _255  and  _258
REMARK  110  A    between atoms: _258  and  _259
REMARK  111  A    between atoms: _259  and  _260
REMARK  112  A    between atoms: _260  and  _261
REMARK  113  A    between atoms: _261  and  _262
REMARK  114  A    between atoms: _266  and  _268
REMARK  115  A    between atoms: _268  and  _269
REMARK  116  A    between atoms: _268  and  _271
REMARK  117  A    between atoms: _271  and  _272
REMARK  118  A    between atoms: _272  and  _273
REMARK  119  A    between atoms: _275  and  _277
REMARK  120  A    between atoms: _277  and  _278
REMARK  121  A    between atoms: _277  and  _280
REMARK  122  A    between atoms: _280  and  _281
REMARK  123  A    between atoms: _281  and  _282
REMARK  124  A    between atoms: _285  and  _287
REMARK  125  A    between atoms: _287  and  _288
REMARK  126  A    between atoms: _287  and  _290
REMARK  127  A    between atoms: _292  and  _294
REMARK  128  A    between atoms: _294  and  _295
REMARK  129  A    between atoms: _294  and  _297
REMARK  130  A    between atoms: _297  and  _298
REMARK  131  A    between atoms: _301  and  _303
REMARK  132  A    between atoms: _303  and  _304
REMARK  133  A    between atoms: _303  and  _306
REMARK  134  A    between atoms: _306  and  _307
REMARK  135  A    between atoms: _310  and  _312
REMARK  136  A    between atoms: _312  and  _313
REMARK  137  A    between atoms: _312  and  _315
REMARK  138  A    between atoms: _315  and  _316
REMARK  139  A    between atoms: _319  and  _321
REMARK  140  A    between atoms: _321  and  _322
REMARK  141  A    between atoms: _321  and  _324
REMARK  142  A    between atoms: _324  and  _325
REMARK  143  A    between atoms: _330  and  _331
REMARK  144  A    between atoms: _333  and  _335
REMARK  145  A    between atoms: _335  and  _336
REMARK  146  A    between atoms: _335  and  _338
REMARK  147  A    between atoms: _338  and  _339
REMARK  148  A    between atoms: _342  and  _344
REMARK  149  A    between atoms: _344  and  _345
REMARK  150  A    between atoms: _344  and  _347
REMARK  151  A    between atoms: _349  and  _351
REMARK  152  A    between atoms: _351  and  _352
REMARK  153  A    between atoms: _351  and  _354
REMARK  154  A    between atoms: _354  and  _355
REMARK  155  A    between atoms: _358  and  _360
REMARK  156  A    between atoms: _360  and  _361
REMARK  157  A    between atoms: _363  and  _365
REMARK  158  A    between atoms: _365  and  _366
REMARK  159  A    between atoms: _365  and  _368
REMARK  160  A    between atoms: _368  and  _369
REMARK  161  A    between atoms: _369  and  _370
REMARK  162  A    between atoms: _370  and  _371
REMARK  163  A    between atoms: _371  and  _372
REMARK  164  A    between atoms: _376  and  _378
REMARK  165  A    between atoms: _378  and  _379
REMARK  166  A    between atoms: _378  and  _381
REMARK  167  A    between atoms: _381  and  _382
REMARK  168  A    between atoms: _387  and  _389
REMARK  169  A    between atoms: _389  and  _390
REMARK  170  A    between atoms: _389  and  _392
REMARK  171  A    between atoms: _392  and  _393
REMARK  172  A    between atoms: _396  and  _398
REMARK  173  A    between atoms: _398  and  _399
REMARK  174  A    between atoms: _398  and  _401
REMARK  175  A    between atoms: _401  and  _402
REMARK  176  A    between atoms: _412  and  _414
REMARK  177  A    between atoms: _414  and  _415
REMARK  178  A    between atoms: _414  and  _417
REMARK  179  A    between atoms: _417  and  _418
REMARK  180  A    between atoms: _418  and  _419
REMARK  181  A    between atoms: _419  and  _420
REMARK  182  A    between atoms: _420  and  _421
REMARK  183  A    between atoms: _426  and  _427
REMARK  184  A    between atoms: _432  and  _434
REMARK  185  A    between atoms: _434  and  _435
REMARK  186  A    between atoms: _438  and  _440
REMARK  187  A    between atoms: _440  and  _441
REMARK  188  A    between atoms: _440  and  _443
REMARK  189  A    between atoms: _446  and  _448
REMARK  190  A    between atoms: _448  and  _449
REMARK  191  A    between atoms: _448  and  _451
REMARK  192  A    between atoms: _451  and  _452
REMARK  193  A    between atoms: _452  and  _453
REMARK  194  A    between atoms: _456  and  _458
REMARK  195  A    between atoms: _458  and  _459
REMARK  196  A    between atoms: _462  and  _464
REMARK  197  A    between atoms: _464  and  _465
REMARK  198  A    between atoms: _464  and  _467
REMARK  199  A    between atoms: _467  and  _468
REMARK  200  A    between atoms: _473  and  _474
REMARK  201  A    between atoms: _476  and  _478
REMARK  202  A    between atoms: _478  and  _479
REMARK  203  A    between atoms: _481  and  _483
REMARK  204  A    between atoms: _483  and  _484
REMARK  205  A    between atoms: _483  and  _486
REMARK  206  A    between atoms: _486  and  _487
REMARK  207  A    between atoms: _487  and  _488
REMARK  208  A    between atoms: _491  and  _493
REMARK  209  A    between atoms: _493  and  _494
REMARK  210  A    between atoms: _493  and  _496
REMARK  211  A    between atoms: _496  and  _497
REMARK  212  A    between atoms: _503  and  _505
REMARK  213  A    between atoms: _505  and  _506
REMARK  214  A    between atoms: _505  and  _508
REMARK  215  A    between atoms: _508  and  _509
REMARK  216  A    between atoms: _512  and  _514
REMARK  217  A    between atoms: _514  and  _515
REMARK  218  A    between atoms: _514  and  _517
REMARK  219  A    between atoms: _519  and  _521
REMARK  220  A    between atoms: _521  and  _522
REMARK  221  A    between atoms: _521  and  _524
REMARK  222  A    between atoms: _524  and  _525
REMARK  223  A    between atoms: _531  and  _533
REMARK  224  A    between atoms: _533  and  _534
REMARK  225  A    between atoms: _533  and  _536
REMARK  226  A    between atoms: _536  and  _537
REMARK  227  A    between atoms: _537  and  _538
REMARK  228  A    between atoms: _541  and  _543
REMARK  229  A    between atoms: _543  and  _544
REMARK  230  A    between atoms: _543  and  _546
REMARK  231  A    between atoms: _546  and  _547
REMARK  232  A    between atoms: _550  and  _552
REMARK  233  A    between atoms: _552  and  _553
REMARK  234  A    between atoms: _552  and  _555
REMARK  235  A    between atoms: _555  and  _556
REMARK  236  A    between atoms: _556  and  _557
REMARK  237  A    between atoms: _557  and  _558
REMARK  238  A    between atoms: _567  and  _569
REMARK  239  A    between atoms: _569  and  _570
REMARK  240  A    between atoms: _569  and  _572
REMARK  241  A    between atoms: _572  and  _573
REMARK  242  A    between atoms: _576  and  _578
REMARK  243  A    between atoms: _578  and  _579
REMARK  244  A    between atoms: _578  and  _581
REMARK  245  A    between atoms: _581  and  _582
REMARK  246  A    between atoms: _588  and  _590
REMARK  247  A    between atoms: _590  and  _591
REMARK  248  A    between atoms: _590  and  _593
REMARK  249  A    between atoms: _596  and  _598
REMARK  250  A    between atoms: _598  and  _599
REMARK  251  A    between atoms: _603  and  _604
REMARK  252  A    between atoms: _609  and  _611
REMARK  253  A    between atoms: _611  and  _612
REMARK  254  A    between atoms: _611  and  _614
REMARK  255  A    between atoms: _614  and  _615
REMARK  256  A    between atoms: _618  and  _620
REMARK  257  A    between atoms: _620  and  _621
REMARK  258  A    between atoms: _620  and  _623
REMARK  259  A    between atoms: _623  and  _624
REMARK  260  A    between atoms: _631  and  _632
REMARK  261  A    between atoms: _637  and  _639
REMARK  262  A    between atoms: _639  and  _640
REMARK  263  A    between atoms: _639  and  _642
REMARK  264  A    between atoms: _645  and  _647
REMARK  265  A    between atoms: _647  and  _648
REMARK  266  A    between atoms: _651  and  _653
REMARK  267  A    between atoms: _653  and  _654
REMARK  268  A    between atoms: _653  and  _656
REMARK  269  A    between atoms: _656  and  _657
REMARK  270  A    between atoms: _662  and  _663
REMARK  271  A    between atoms: _665  and  _667
REMARK  272  A    between atoms: _667  and  _668
REMARK  273  A    between atoms: _667  and  _670
REMARK  274  A    between atoms: _670  and  _671
REMARK  275  A    between atoms: _676  and  _678
REMARK  276  A    between atoms: _678  and  _679
REMARK  277  A    between atoms: _678  and  _681
REMARK  278  A    between atoms: _681  and  _682
REMARK  279  A    between atoms: _685  and  _687
REMARK  280  A    between atoms: _687  and  _688
REMARK  281  A    between atoms: _687  and  _690
REMARK  282  A    between atoms: _690  and  _691
REMARK  283  A    between atoms: _694  and  _696
REMARK  284  A    between atoms: _696  and  _697
REMARK  285  A    between atoms: _696  and  _699
REMARK  286  A    between atoms: _699  and  _700
REMARK  287  A    between atoms: _700  and  _701
REMARK  288  A    between atoms: _701  and  _702
REMARK  289  A    between atoms: _702  and  _703
REMARK  290  A    between atoms: _707  and  _709
REMARK  291  A    between atoms: _709  and  _710
REMARK  292  A    between atoms: _709  and  _712
REMARK  293  A    between atoms: _712  and  _713
REMARK  294  A    between atoms: _719  and  _721
REMARK  295  A    between atoms: _721  and  _722
REMARK  296  A    between atoms: _721  and  _724
REMARK  297  A    between atoms: _724  and  _725
REMARK  298  A    between atoms: _728  and  _730
REMARK  299  A    between atoms: _730  and  _731
REMARK  300  A    between atoms: _730  and  _733
REMARK  301  A    between atoms: _733  and  _734
REMARK  302  A    between atoms: _736  and  _738
REMARK  303  A    between atoms: _738  and  _739
REMARK  304  A    between atoms: _738  and  _741
REMARK  305  A    between atoms: _741  and  _742
REMARK  306  A    between atoms: _745  and  _747
REMARK  307  A    between atoms: _747  and  _748
REMARK  308  A    between atoms: _747  and  _750
REMARK  309  A    between atoms: _750  and  _751
REMARK  310  A    between atoms: _751  and  _752
REMARK  311  A    between atoms: _752  and  _753
REMARK  312  A    between atoms: _762  and  _764
REMARK  313  A    between atoms: _764  and  _765
REMARK  314  A    between atoms: _764  and  _767
REMARK  315  A    between atoms: _767  and  _768
REMARK  316  A    between atoms: _771  and  _773
REMARK  317  A    between atoms: _773  and  _774
REMARK  318  A    between atoms: _773  and  _776
REMARK  319  A    between atoms: _776  and  _777
REMARK  320  A    between atoms: _777  and  _778
REMARK  321  A    between atoms: _780  and  _782
REMARK  322  A    between atoms: _782  and  _783
REMARK  323  A    between atoms: _782  and  _785
REMARK  324  A    between atoms: _788  and  _790
REMARK  325  A    between atoms: _790  and  _791
REMARK  326  A    between atoms: _790  and  _793
REMARK  327  A    between atoms: _793  and  _794
REMARK                            x       y       z     vdW  Elec       q    Type
REMARK                         _______ _______ _______ _____ _____    ______ ____
ROOT
ATOM      1  CA  ILE A   1      91.920  19.360  -5.632  0.00  0.00    +0.133 C 
ENDROOT
BRANCH   1   2
ATOM      2  N   ILE A   1      93.110  18.747  -5.055  0.00  0.00    -0.239 NA
ATOM      3  H   ILE A   1      93.284  18.831  -4.033  0.00  0.00    +0.142 HD
ENDBRANCH   1   2
BRANCH   1   4
ATOM      4  CB  ILE A   1      90.809  19.359  -4.621  0.00  0.00    +0.023 C 
ATOM      5  CG2 ILE A   1      89.675  20.291  -5.025  0.00  0.00    +0.002 C 
BRANCH   4   6
ATOM      6  CG1 ILE A   1      90.280  17.917  -4.470  0.00  0.00    +0.002 C 
ATOM      7  CD1 ILE A   1      89.524  17.711  -3.263  0.00  0.00    +0.000 C 
ENDBRANCH   4   6
ENDBRANCH   1   4
BRANCH   1   8
ATOM      8  C   ILE A   1      92.263  20.763  -6.119  0.00  0.00    +0.224 C 
ATOM      9  O   ILE A   1      92.822  21.565  -5.368  0.00  0.00    -0.287 OA
ENDBRANCH   1   8
TORSDOF 4
REMARK  Name = ../refined-set-2016/4omj/4omj_pocket.pdb
REMARK  327 active torsions:
REMARK  status: ('A' for Active; 'I' for Inactive)
REMARK    1  A    between atoms: _1  and  _3
REMARK    2  A    between atoms: _3  and  _4
REMARK    3  A    between atoms: _3  and  _6
REMARK    4  A    between atoms: _6  and  _7
REMARK    5  A    between atoms: _10  and  _12
REMARK    6  A    between atoms: _12  and  _13
REMARK    7  A    between atoms: _12  and  _15
REMARK    8  A    between atoms: _15  and  _16
REMARK    9  A    between atoms: _21  and  _22
REMARK   10  A    between atoms: _24  and  _26
REMARK   11  A    between atoms: _26  and  _27
REMARK   12  A    between atoms: _26  and  _29
REMARK   13  A    between atoms: _29  and  _30
REMARK   14  A    between atoms: _33  and  _35
REMARK   15  A    between atoms: _35  and  _36
REMARK   16  A    between atoms: _35  and  _38
REMARK   17  A    between atoms: _38  and  _39
REMARK   18  A    between atoms: _41  and  _43
REMARK   19  A    between atoms: _43  and  _44
REMARK   20  A    between atoms: _43  and  _46
REMARK   21  A    between atoms: _46  and  _47
REMARK   22  A    between atoms: _57  and  _59
REMARK   23  A    between atoms: _59  and  _60
REMARK   24  A    between atoms: _59  and  _62
REMARK   25  A    between atoms: _62  and  _63
REMARK   26  A    between atoms: _66  and  _68
REMARK   27  A    between atoms: _68  and  _69
REMARK   28  A    between atoms: _68  and  _71
REMARK   29  A    between atoms: _71  and  _72
REMARK   30  A    between atoms: _75  and  _77
REMARK   31  A    between atoms: _77  and  _78
REMARK   32  A    between atoms: _77  and  _80
REMARK   33  A    between atoms: _80  and  _81
REMARK   34  A    between atoms: _84  and  _86
REMARK   35  A    between atoms: _86  and  _87
REMARK   36  A    between atoms: _89  and  _91
REMARK   37  A    between atoms: _91  and  _92
REMARK   38  A    between atoms: _91  and  _94
REMARK   39  A    between atoms: _94  and  _95
REMARK   40  A    between atoms: _98  and  _100
REMARK   41  A    between atoms: _100  and  _101
REMARK   42  A    between atoms: _100  and  _103
REMARK   43  A    between atoms: _103  and  _104
REMARK   44  A    between atoms: _107  and  _109
REMARK   45  A    between atoms: _109  and  _110
REMARK   46  A    between atoms: _113  and  _115
REMARK   47  A    between atoms: _115  and  _116
REMARK   48  A    between atoms: _115  and  _118
REMARK   49  A    between atoms: _118  and  _119
REMARK   50  A    between atoms: _119  and  _120
REMARK   51  A    between atoms: _120  and  _121
REMARK   52  A    between atoms: _121  and  _122
REMARK   53  A    between atoms: _126  and  _128
REMARK   54  A    between atoms: _128  and  _129
REMARK   55  A    between atoms: _131  and  _133
REMARK   56  A    between atoms: _133  and  _134
REMARK   57  A    between atoms: _133  and  _136
REMARK   58  A    between atoms: _136  and  _137
REMARK   59  A    between atoms: _140  and  _142
REMARK   60  A    between atoms: _142  and  _143
REMARK   61  A    between atoms: _142  and  _145
REMARK   62  A    between atoms: _145  and  _146
REMARK   63  A    between atoms: _149  and  _151
REMARK   64  A    between atoms: _151  and  _152
REMARK   65  A    between atoms: _151  and  _154
REMARK   66  A    between atoms: _154  and  _155
REMARK   67  A    between atoms: _161  and  _163
REMARK   68  A    between atoms: _163  and  _164
REMARK   69  A    between atoms: _167  and  _169
REMARK   70  A    between atoms: _169  and  _170
REMARK   71  A    between atoms: _169  and  _172
REMARK   72  A    between atoms: _172  and  _173
REMARK   73  A    between atoms: _175  and  _177
REMARK   74  A    between atoms: _177  and  _178
REMARK   75  A    between atoms: _177  and  _180
REMARK   76  A    between atoms: _180  and  _181
REMARK   77  A    between atoms: _181  and  _182
REMARK   78  A    between atoms: _182  and  _183
REMARK   79  A    between atoms: _183  and  _184
REMARK   80  A    between atoms: _188  and  _190
REMARK   81  A    between atoms: _190  and  _191
REMARK   82  A    between atoms: _190  and  _193
REMARK   83  A    between atoms: _193  and  _194
REMARK   84  A    between atoms: _194  and  _195
REMARK   85  A    between atoms: _200  and  _202
REMARK   86  A    between atoms: _202  and  _203
REMARK   87  A    between atoms: _202  and  _205
REMARK   88  A    between atoms: _205  and  _206
REMARK   89  A    between atoms: _209  and  _211
REMARK   90  A    between atoms: _211  and  _212
REMARK   91  A    between atoms: _211  and  _214
REMARK   92  A    between atoms: _214  and  _215
REMARK   93  A    between atoms: _218  and  _220
REMARK   94  A    between atoms: _220  and  _221
REMARK   95  A    between atoms: _220  and  _223
REMARK   96  A    between atoms: _223  and  _224
REMARK   97  A    between atoms: _227  and  _229
REMARK   98  A    between atoms: _229  and  _230
REMARK   99  A    between atoms: _229  and  _232
REMARK  100  A    between atoms: _232  and  _233
REMARK  101  A    between atoms: _233  and  _234
REMARK  102  A    between atoms: _234  and  _235
REMARK  103  A    between atoms: _244  and  _246
REMARK  104  A    between atoms: _246  and  _247
REMARK  105  A    between atoms: _246  and  _249
REMARK  106  A    between atoms: _249  and  _250
REMARK  107  A    between atoms: _253  and  _255
REMARK  108  A    between atoms: _255  and  _256
REMARK  109  A    between atoms: _255  and  _258
REMARK  110  A    between atoms: _258  and  _259
REMARK  111  A    between atoms: _259  and  _260
REMARK  112  A    between atoms: _260  and  _261
REMARK  113  A    between atoms: _261  and  _262
REMARK  114  A    between atoms: _266  and  _268
REMARK  115  A    between atoms: _268  and  _269
REMARK  116  A    between atoms: _268  and  _271
REMARK  117  A    between atoms: _271  and  _272
REMARK  118  A    between atoms: _272  and  _273
REMARK  119  A    between atoms: _275  and  _277
REMARK  120  A    between atoms: _277  and  _278
REMARK  121  A    between atoms: _277  and  _280
REMARK  122  A    between atoms: _280  and  _281
REMARK  123  A    between atoms: _281  and  _282
REMARK  124  A    between atoms: _285  and  _287
REMARK  125  A    between atoms: _287  and  _288
REMARK  126  A    between atoms: _287  and  _290
REMARK  127  A    between atoms: _292  and  _294
REMARK  128  A    between atoms: _294  and  _295
REMARK  129  A    between atoms: _294  and  _297
REMARK  130  A    between atoms: _297  and  _298
REMARK  131  A    between atoms: _301  and  _303
REMARK  132  A    between atoms: _303  and  _304
REMARK  133  A    between atoms: _303  and  _306
REMARK  134  A    between atoms: _306  and  _307
REMARK  135  A    between atoms: _310  and  _312
REMARK  136  A    between atoms: _312  and  _313
REMARK  137  A    between atoms: _312  and  _315
REMARK  138  A    between atoms: _315  and  _316
REMARK  139  A    between atoms: _319  and  _321
REMARK  140  A    between atoms: _321  and  _322
REMARK  141  A    between atoms: _321  and  _324
REMARK  142  A    between atoms: _324  and  _325
REMARK  143  A    between atoms: _330  and  _331
REMARK  144  A    between atoms: _333  and  _335
REMARK  145  A    between atoms: _335  and  _336
REMARK  146  A    between atoms: _335  and  _338
REMARK  147  A    between atoms: _338  and  _339
REMARK  148  A    between atoms: _342  and  _344
REMARK  149  A    between atoms: _344  and  _345
REMARK  150  A    between atoms: _344  and  _347
REMARK  151  A    between atoms: _349  and  _351
REMARK  152  A    between atoms: _351  and  _352
REMARK  153  A    between atoms: _351  and  _354
REMARK  154  A    between atoms: _354  and  _355
REMARK  155  A    between atoms: _358  and  _360
REMARK  156  A    between atoms: _360  and  _361
REMARK  157  A    between atoms: _363  and  _365
REMARK  158  A    between atoms: _365  and  _366
REMARK  159  A    between atoms: _365  and  _368
REMARK  160  A    between atoms: _368  and  _369
REMARK  161  A    between atoms: _369  and  _370
REMARK  162  A    between atoms: _370  and  _371
REMARK  163  A    between atoms: _371  and  _372
REMARK  164  A    between atoms: _376  and  _378
REMARK  165  A    between atoms: _378  and  _379
REMARK  166  A    between atoms: _378  and  _381
REMARK  167  A    between atoms: _381  and  _382
REMARK  168  A    between atoms: _387  and  _389
REMARK  169  A    between atoms: _389  and  _390
REMARK  170  A    between atoms: _389  and  _392
REMARK  171  A    between atoms: _392  and  _393
REMARK  172  A    between atoms: _396  and  _398
REMARK  173  A    between atoms: _398  and  _399
REMARK  174  A    between atoms: _398  and  _401
REMARK  175  A    between atoms: _401  and  _402
REMARK  176  A    between atoms: _412  and  _414
REMARK  177  A    between atoms: _414  and  _415
REMARK  178  A    between atoms: _414  and  _417
REMARK  179  A    between atoms: _417  and  _418
REMARK  180  A    between atoms: _418  and  _419
REMARK  181  A    between atoms: _419  and  _420
REMARK  182  A    between atoms: _420  and  _421
REMARK  183  A    between atoms: _426  and  _427
REMARK  184  A    between atoms: _432  and  _434
REMARK  185  A    between atoms: _434  and  _435
REMARK  186  A    between atoms: _438  and  _440
REMARK  187  A    between atoms: _440  and  _441
REMARK  188  A    between atoms: _440  and  _443
REMARK  189  A    between atoms: _446  and  _448
REMARK  190  A    between atoms: _448  and  _449
REMARK  191  A    between atoms: _448  and  _451
REMARK  192  A    between atoms: _451  and  _452
REMARK  193  A    between atoms: _452  and  _453
REMARK  194  A    between atoms: _456  and  _458
REMARK  195  A    between atoms: _458  and  _459
REMARK  196  A    between atoms: _462  and  _464
REMARK  197  A    between atoms: _464  and  _465
REMARK  198  A    between atoms: _464  and  _467
REMARK  199  A    between atoms: _467  and  _468
REMARK  200  A    between atoms: _473  and  _474
REMARK  201  A    between atoms: _476  and  _478
REMARK  202  A    between atoms: _478  and  _479
REMARK  203  A    between atoms: _481  and  _483
REMARK  204  A    between atoms: _483  and  _484
REMARK  205  A    between atoms: _483  and  _486
REMARK  206  A    between atoms: _486  and  _487
REMARK  207  A    between atoms: _487  and  _488
REMARK  208  A    between atoms: _491  and  _493
REMARK  209  A    between atoms: _493  and  _494
REMARK  210  A    between atoms: _493  and  _496
REMARK  211  A    between atoms: _496  and  _497
REMARK  212  A    between atoms: _503  and  _505
REMARK  213  A    between atoms: _505  and  _506
REMARK  214  A    between atoms: _505  and  _508
REMARK  215  A    between atoms: _508  and  _509
REMARK  216  A    between atoms: _512  and  _514
REMARK  217  A    between atoms: _514  and  _515
REMARK  218  A    between atoms: _514  and  _517
REMARK  219  A    between atoms: _519  and  _521
REMARK  220  A    between atoms: _521  and  _522
REMARK  221  A    between atoms: _521  and  _524
REMARK  222  A    between atoms: _524  and  _525
REMARK  223  A    between atoms: _531  and  _533
REMARK  224  A    between atoms: _533  and  _534
REMARK  225  A    between atoms: _533  and  _536
REMARK  226  A    between atoms: _536  and  _537
REMARK  227  A    between atoms: _537  and  _538
REMARK  228  A    between atoms: _541  and  _543
REMARK  229  A    between atoms: _543  and  _544
REMARK  230  A    between atoms: _543  and  _546
REMARK  231  A    between atoms: _546  and  _547
REMARK  232  A    between atoms: _550  and  _552
REMARK  233  A    between atoms: _552  and  _553
REMARK  234  A    between atoms: _552  and  _555
REMARK  235  A    between atoms: _555  and  _556
REMARK  236  A    between atoms: _556  and  _557
REMARK  237  A    between atoms: _557  and  _558
REMARK  238  A    between atoms: _567  and  _569
REMARK  239  A    between atoms: _569  and  _570
REMARK  240  A    between atoms: _569  and  _572
REMARK  241  A    between atoms: _572  and  _573
REMARK  242  A    between atoms: _576  and  _578
REMARK  243  A    between atoms: _578  and  _579
REMARK  244  A    between atoms: _578  and  _581
REMARK  245  A    between atoms: _581  and  _582
REMARK  246  A    between atoms: _588  and  _590
REMARK  247  A    between atoms: _590  and  _591
REMARK  248  A    between atoms: _590  and  _593
REMARK  249  A    between atoms: _596  and  _598
REMARK  250  A    between atoms: _598  and  _599
REMARK  251  A    between atoms: _603  and  _604
REMARK  252  A    between atoms: _609  and  _611
REMARK  253  A    between atoms: _611  and  _612
REMARK  254  A    between atoms: _611  and  _614
REMARK  255  A    between atoms: _614  and  _615
REMARK  256  A    between atoms: _618  and  _620
REMARK  257  A    between atoms: _620  and  _621
REMARK  258  A    between atoms: _620  and  _623
REMARK  259  A    between atoms: _623  and  _624
REMARK  260  A    between atoms: _631  and  _632
REMARK  261  A    between atoms: _637  and  _639
REMARK  262  A    between atoms: _639  and  _640
REMARK  263  A    between atoms: _639  and  _642
REMARK  264  A    between atoms: _645  and  _647
REMARK  265  A    between atoms: _647  and  _648
REMARK  266  A    between atoms: _651  and  _653
REMARK  267  A    between atoms: _653  and  _654
REMARK  268  A    between atoms: _653  and  _656
REMARK  269  A    between atoms: _656  and  _657
REMARK  270  A    between atoms: _662  and  _663
REMARK  271  A    between atoms: _665  and  _667
REMARK  272  A    between atoms: _667  and  _668
REMARK  273  A    between atoms: _667  and  _670
REMARK  274  A    between atoms: _670  and  _671
REMARK  275  A    between atoms: _676  and  _678
REMARK  276  A    between atoms: _678  and  _679
REMARK  277  A    between atoms: _678  and  _681
REMARK  278  A    between atoms: _681  and  _682
REMARK  279  A    between atoms: _685  and  _687
REMARK  280  A    between atoms: _687  and  _688
REMARK  281  A    between atoms: _687  and  _690
REMARK  282  A    between atoms: _690  and  _691
REMARK  283  A    between atoms: _694  and  _696
REMARK  284  A    between atoms: _696  and  _697
REMARK  285  A    between atoms: _696  and  _699
REMARK  286  A    between atoms: _699  and  _700
REMARK  287  A    between atoms: _700  and  _701
REMARK  288  A    between atoms: _701  and  _702
REMARK  289  A    between atoms: _702  and  _703
REMARK  290  A    between atoms: _707  and  _709
REMARK  291  A    between atoms: _709  and  _710
REMARK  292  A    between atoms: _709  and  _712
REMARK  293  A    between atoms: _712  and  _713
REMARK  294  A    between atoms: _719  and  _721
REMARK  295  A    between atoms: _721  and  _722
REMARK  296  A    between atoms: _721  and  _724
REMARK  297  A    between atoms: _724  and  _725
REMARK  298  A    between atoms: _728  and  _730
REMARK  299  A    between atoms: _730  and  _731
REMARK  300  A    between atoms: _730  and  _733
REMARK  301  A    between atoms: _733  and  _734
REMARK  302  A    between atoms: _736  and  _738
REMARK  303  A    between atoms: _738  and  _739
REMARK  304  A    between atoms: _738  and  _741
REMARK  305  A    between atoms: _741  and  _742
REMARK  306  A    between atoms: _745  and  _747
REMARK  307  A    between atoms: _747  and  _748
REMARK  308  A    between atoms: _747  and  _750
REMARK  309  A    between atoms: _750  and  _751
REMARK  310  A    between atoms: _751  and  _752
REMARK  311  A    between atoms: _752  and  _753
REMARK  312  A    between atoms: _762  and  _764
REMARK  313  A    between atoms: _764  and  _765
REMARK  314  A    between atoms: _764  and  _767
REMARK  315  A    between atoms: _767  and  _768
REMARK  316  A    between atoms: _771  and  _773
REMARK  317  A    between atoms: _773  and  _774
REMARK  318  A    between atoms: _773  and  _776
REMARK  319  A    between atoms: _776  and  _777
REMARK  320  A    between atoms: _777  and  _778
REMARK  321  A    between atoms: _780  and  _782
REMARK  322  A    between atoms: _782  and  _783
REMARK  323  A    between atoms: _782  and  _785
REMARK  324  A    between atoms: _788  and  _790
REMARK  325  A    between atoms: _790  and  _791
REMARK  326  A    between atoms: _790  and  _793
REMARK  327  A    between atoms: _793  and  _794
REMARK                            x       y       z     vdW  Elec       q    Type
REMARK                         _______ _______ _______ _____ _____    ______ ____
ROOT
ATOM      1  O   HOH     1      91.530  13.801  -3.298  0.00  0.00    +0.000 OA
ENDROOT
TORSDOF 0
REMARK  Name = ../refined-set-2016/4omj/4omj_pocket.pdb
REMARK  327 active torsions:
REMARK  status: ('A' for Active; 'I' for Inactive)
REMARK    1  A    between atoms: _1  and  _3
REMARK    2  A    between atoms: _3  and  _4
REMARK    3  A    between atoms: _3  and  _6
REMARK    4  A    between atoms: _6  and  _7
REMARK    5  A    between atoms: _10  and  _12
REMARK    6  A    between atoms: _12  and  _13
REMARK    7  A    between atoms: _12  and  _15
REMARK    8  A    between atoms: _15  and  _16
REMARK    9  A    between atoms: _21  and  _22
REMARK   10  A    between atoms: _24  and  _26
REMARK   11  A    between atoms: _26  and  _27
REMARK   12  A    between atoms: _26  and  _29
REMARK   13  A    between atoms: _29  and  _30
REMARK   14  A    between atoms: _33  and  _35
REMARK   15  A    between atoms: _35  and  _36
REMARK   16  A    between atoms: _35  and  _38
REMARK   17  A    between atoms: _38  and  _39
REMARK   18  A    between atoms: _41  and  _43
REMARK   19  A    between atoms: _43  and  _44
REMARK   20  A    between atoms: _43  and  _46
REMARK   21  A    between atoms: _46  and  _47
REMARK   22  A    between atoms: _57  and  _59
REMARK   23  A    between atoms: _59  and  _60
REMARK   24  A    between atoms: _59  and  _62
REMARK   25  A    between atoms: _62  and  _63
REMARK   26  A    between atoms: _66  and  _68
REMARK   27  A    between atoms: _68  and  _69
REMARK   28  A    between atoms: _68  and  _71
REMARK   29  A    between atoms: _71  and  _72
REMARK   30  A    between atoms: _75  and  _77
REMARK   31  A    between atoms: _77  and  _78
REMARK   32  A    between atoms: _77  and  _80
REMARK   33  A    between atoms: _80  and  _81
REMARK   34  A    between atoms: _84  and  _86
REMARK   35  A    between atoms: _86  and  _87
REMARK   36  A    between atoms: _89  and  _91
REMARK   37  A    between atoms: _91  and  _92
REMARK   38  A    between atoms: _91  and  _94
REMARK   39  A    between atoms: _94  and  _95
REMARK   40  A    between atoms: _98  and  _100
REMARK   41  A    between atoms: _100  and  _101
REMARK   42  A    between atoms: _100  and  _103
REMARK   43  A    between atoms: _103  and  _104
REMARK   44  A    between atoms: _107  and  _109
REMARK   45  A    between atoms: _109  and  _110
REMARK   46  A    between atoms: _113  and  _115
REMARK   47  A    between atoms: _115  and  _116
REMARK   48  A    between atoms: _115  and  _118
REMARK   49  A    between atoms: _118  and  _119
REMARK   50  A    between atoms: _119  and  _120
REMARK   51  A    between atoms: _120  and  _121
REMARK   52  A    between atoms: _121  and  _122
REMARK   53  A    between atoms: _126  and  _128
REMARK   54  A    between atoms: _128  and  _129
REMARK   55  A    between atoms: _131  and  _133
REMARK   56  A    between atoms: _133  and  _134
REMARK   57  A    between atoms: _133  and  _136
REMARK   58  A    between atoms: _136  and  _137
REMARK   59  A    between atoms: _140  and  _142
REMARK   60  A    between atoms: _142  and  _143
REMARK   61  A    between atoms: _142  and  _145
REMARK   62  A    between atoms: _145  and  _146
REMARK   63  A    between atoms: _149  and  _151
REMARK   64  A    between atoms: _151  and  _152
REMARK   65  A    between atoms: _151  and  _154
REMARK   66  A    between atoms: _154  and  _155
REMARK   67  A    between atoms: _161  and  _163
REMARK   68  A    between atoms: _163  and  _164
REMARK   69  A    between atoms: _167  and  _169
REMARK   70  A    between atoms: _169  and  _170
REMARK   71  A    between atoms: _169  and  _172
REMARK   72  A    between atoms: _172  and  _173
REMARK   73  A    between atoms: _175  and  _177
REMARK   74  A    between atoms: _177  and  _178
REMARK   75  A    between atoms: _177  and  _180
REMARK   76  A    between atoms: _180  and  _181
REMARK   77  A    between atoms: _181  and  _182
REMARK   78  A    between atoms: _182  and  _183
REMARK   79  A    between atoms: _183  and  _184
REMARK   80  A    between atoms: _188  and  _190
REMARK   81  A    between atoms: _190  and  _191
REMARK   82  A    between atoms: _190  and  _193
REMARK   83  A    between atoms: _193  and  _194
REMARK   84  A    between atoms: _194  and  _195
REMARK   85  A    between atoms: _200  and  _202
REMARK   86  A    between atoms: _202  and  _203
REMARK   87  A    between atoms: _202  and  _205
REMARK   88  A    between atoms: _205  and  _206
REMARK   89  A    between atoms: _209  and  _211
REMARK   90  A    between atoms: _211  and  _212
REMARK   91  A    between atoms: _211  and  _214
REMARK   92  A    between atoms: _214  and  _215
REMARK   93  A    between atoms: _218  and  _220
REMARK   94  A    between atoms: _220  and  _221
REMARK   95  A    between atoms: _220  and  _223
REMARK   96  A    between atoms: _223  and  _224
REMARK   97  A    between atoms: _227  and  _229
REMARK   98  A    between atoms: _229  and  _230
REMARK   99  A    between atoms: _229  and  _232
REMARK  100  A    between atoms: _232  and  _233
REMARK  101  A    between atoms: _233  and  _234
REMARK  102  A    between atoms: _234  and  _235
REMARK  103  A    between atoms: _244  and  _246
REMARK  104  A    between atoms: _246  and  _247
REMARK  105  A    between atoms: _246  and  _249
REMARK  106  A    between atoms: _249  and  _250
REMARK  107  A    between atoms: _253  and  _255
REMARK  108  A    between atoms: _255  and  _256
REMARK  109  A    between atoms: _255  and  _258
REMARK  110  A    between atoms: _258  and  _259
REMARK  111  A    between atoms: _259  and  _260
REMARK  112  A    between atoms: _260  and  _261
REMARK  113  A    between atoms: _261  and  _262
REMARK  114  A    between atoms: _266  and  _268
REMARK  115  A    between atoms: _268  and  _269
REMARK  116  A    between atoms: _268  and  _271
REMARK  117  A    between atoms: _271  and  _272
REMARK  118  A    between atoms: _272  and  _273
REMARK  119  A    between atoms: _275  and  _277
REMARK  120  A    between atoms: _277  and  _278
REMARK  121  A    between atoms: _277  and  _280
REMARK  122  A    between atoms: _280  and  _281
REMARK  123  A    between atoms: _281  and  _282
REMARK  124  A    between atoms: _285  and  _287
REMARK  125  A    between atoms: _287  and  _288
REMARK  126  A    between atoms: _287  and  _290
REMARK  127  A    between atoms: _292  and  _294
REMARK  128  A    between atoms: _294  and  _295
REMARK  129  A    between atoms: _294  and  _297
REMARK  130  A    between atoms: _297  and  _298
REMARK  131  A    between atoms: _301  and  _303
REMARK  132  A    between atoms: _303  and  _304
REMARK  133  A    between atoms: _303  and  _306
REMARK  134  A    between atoms: _306  and  _307
REMARK  135  A    between atoms: _310  and  _312
REMARK  136  A    between atoms: _312  and  _313
REMARK  137  A    between atoms: _312  and  _315
REMARK  138  A    between atoms: _315  and  _316
REMARK  139  A    between atoms: _319  and  _321
REMARK  140  A    between atoms: _321  and  _322
REMARK  141  A    between atoms: _321  and  _324
REMARK  142  A    between atoms: _324  and  _325
REMARK  143  A    between atoms: _330  and  _331
REMARK  144  A    between atoms: _333  and  _335
REMARK  145  A    between atoms: _335  and  _336
REMARK  146  A    between atoms: _335  and  _338
REMARK  147  A    between atoms: _338  and  _339
REMARK  148  A    between atoms: _342  and  _344
REMARK  149  A    between atoms: _344  and  _345
REMARK  150  A    between atoms: _344  and  _347
REMARK  151  A    between atoms: _349  and  _351
REMARK  152  A    between atoms: _351  and  _352
REMARK  153  A    between atoms: _351  and  _354
REMARK  154  A    between atoms: _354  and  _355
REMARK  155  A    between atoms: _358  and  _360
REMARK  156  A    between atoms: _360  and  _361
REMARK  157  A    between atoms: _363  and  _365
REMARK  158  A    between atoms: _365  and  _366
REMARK  159  A    between atoms: _365  and  _368
REMARK  160  A    between atoms: _368  and  _369
REMARK  161  A    between atoms: _369  and  _370
REMARK  162  A    between atoms: _370  and  _371
REMARK  163  A    between atoms: _371  and  _372
REMARK  164  A    between atoms: _376  and  _378
REMARK  165  A    between atoms: _378  and  _379
REMARK  166  A    between atoms: _378  and  _381
REMARK  167  A    between atoms: _381  and  _382
REMARK  168  A    between atoms: _387  and  _389
REMARK  169  A    between atoms: _389  and  _390
REMARK  170  A    between atoms: _389  and  _392
REMARK  171  A    between atoms: _392  and  _393
REMARK  172  A    between atoms: _396  and  _398
REMARK  173  A    between atoms: _398  and  _399
REMARK  174  A    between atoms: _398  and  _401
REMARK  175  A    between atoms: _401  and  _402
REMARK  176  A    between atoms: _412  and  _414
REMARK  177  A    between atoms: _414  and  _415
REMARK  178  A    between atoms: _414  and  _417
REMARK  179  A    between atoms: _417  and  _418
REMARK  180  A    between atoms: _418  and  _419
REMARK  181  A    between atoms: _419  and  _420
REMARK  182  A    between atoms: _420  and  _421
REMARK  183  A    between atoms: _426  and  _427
REMARK  184  A    between atoms: _432  and  _434
REMARK  185  A    between atoms: _434  and  _435
REMARK  186  A    between atoms: _438  and  _440
REMARK  187  A    between atoms: _440  and  _441
REMARK  188  A    between atoms: _440  and  _443
REMARK  189  A    between atoms: _446  and  _448
REMARK  190  A    between atoms: _448  and  _449
REMARK  191  A    between atoms: _448  and  _451
REMARK  192  A    between atoms: _451  and  _452
REMARK  193  A    between atoms: _452  and  _453
REMARK  194  A    between atoms: _456  and  _458
REMARK  195  A    between atoms: _458  and  _459
REMARK  196  A    between atoms: _462  and  _464
REMARK  197  A    between atoms: _464  and  _465
REMARK  198  A    between atoms: _464  and  _467
REMARK  199  A    between atoms: _467  and  _468
REMARK  200  A    between atoms: _473  and  _474
REMARK  201  A    between atoms: _476  and  _478
REMARK  202  A    between atoms: _478  and  _479
REMARK  203  A    between atoms: _481  and  _483
REMARK  204  A    between atoms: _483  and  _484
REMARK  205  A    between atoms: _483  and  _486
REMARK  206  A    between atoms: _486  and  _487
REMARK  207  A    between atoms: _487  and  _488
REMARK  208  A    between atoms: _491  and  _493
REMARK  209  A    between atoms: _493  and  _494
REMARK  210  A    between atoms: _493  and  _496
REMARK  211  A    between atoms: _496  and  _497
REMARK  212  A    between atoms: _503  and  _505
REMARK  213  A    between atoms: _505  and  _506
REMARK  214  A    between atoms: _505  and  _508
REMARK  215  A    between atoms: _508  and  _509
REMARK  216  A    between atoms: _512  and  _514
REMARK  217  A    between atoms: _514  and  _515
REMARK  218  A    between atoms: _514  and  _517
REMARK  219  A    between atoms: _519  and  _521
REMARK  220  A    between atoms: _521  and  _522
REMARK  221  A    between atoms: _521  and  _524
REMARK  222  A    between atoms: _524  and  _525
REMARK  223  A    between atoms: _531  and  _533
REMARK  224  A    between atoms: _533  and  _534
REMARK  225  A    between atoms: _533  and  _536
REMARK  226  A    between atoms: _536  and  _537
REMARK  227  A    between atoms: _537  and  _538
REMARK  228  A    between atoms: _541  and  _543
REMARK  229  A    between atoms: _543  and  _544
REMARK  230  A    between atoms: _543  and  _546
REMARK  231  A    between atoms: _546  and  _547
REMARK  232  A    between atoms: _550  and  _552
REMARK  233  A    between atoms: _552  and  _553
REMARK  234  A    between atoms: _552  and  _555
REMARK  235  A    between atoms: _555  and  _556
REMARK  236  A    between atoms: _556  and  _557
REMARK  237  A    between atoms: _557  and  _558
REMARK  238  A    between atoms: _567  and  _569
REMARK  239  A    between atoms: _569  and  _570
REMARK  240  A    between atoms: _569  and  _572
REMARK  241  A    between atoms: _572  and  _573
REMARK  242  A    between atoms: _576  and  _578
REMARK  243  A    between atoms: _578  and  _579
REMARK  244  A    between atoms: _578  and  _581
REMARK  245  A    between atoms: _581  and  _582
REMARK  246  A    between atoms: _588  and  _590
REMARK  247  A    between atoms: _590  and  _591
REMARK  248  A    between atoms: _590  and  _593
REMARK  249  A    between atoms: _596  and  _598
REMARK  250  A    between atoms: _598  and  _599
REMARK  251  A    between atoms: _603  and  _604
REMARK  252  A    between atoms: _609  and  _611
REMARK  253  A    between atoms: _611  and  _612
REMARK  254  A    between atoms: _611  and  _614
REMARK  255  A    between atoms: _614  and  _615
REMARK  256  A    between atoms: _618  and  _620
REMARK  257  A    between atoms: _620  and  _621
REMARK  258  A    between atoms: _620  and  _623
REMARK  259  A    between atoms: _623  and  _624
REMARK  260  A    between atoms: _631  and  _632
REMARK  261  A    between atoms: _637  and  _639
REMARK  262  A    between atoms: _639  and  _640
REMARK  263  A    between atoms: _639  and  _642
REMARK  264  A    between atoms: _645  and  _647
REMARK  265  A    between atoms: _647  and  _648
REMARK  266  A    between atoms: _651  and  _653
REMARK  267  A    between atoms: _653  and  _654
REMARK  268  A    between atoms: _653  and  _656
REMARK  269  A    between atoms: _656  and  _657
REMARK  270  A    between atoms: _662  and  _663
REMARK  271  A    between atoms: _665  and  _667
REMARK  272  A    between atoms: _667  and  _668
REMARK  273  A    between atoms: _667  and  _670
REMARK  274  A    between atoms: _670  and  _671
REMARK  275  A    between atoms: _676  and  _678
REMARK  276  A    between atoms: _678  and  _679
REMARK  277  A    between atoms: _678  and  _681
REMARK  278  A    between atoms: _681  and  _682
REMARK  279  A    between atoms: _685  and  _687
REMARK  280  A    between atoms: _687  and  _688
REMARK  281  A    between atoms: _687  and  _690
REMARK  282  A    between atoms: _690  and  _691
REMARK  283  A    between atoms: _694  and  _696
REMARK  284  A    between atoms: _696  and  _697
REMARK  285  A    between atoms: _696  and  _699
REMARK  286  A    between atoms: _699  and  _700
REMARK  287  A    between atoms: _700  and  _701
REMARK  288  A    between atoms: _701  and  _702
REMARK  289  A    between atoms: _702  and  _703
REMARK  290  A    between atoms: _707  and  _709
REMARK  291  A    between atoms: _709  and  _710
REMARK  292  A    between atoms: _709  and  _712
REMARK  293  A    between atoms: _712  and  _713
REMARK  294  A    between atoms: _719  and  _721
REMARK  295  A    between atoms: _721  and  _722
REMARK  296  A    between atoms: _721  and  _724
REMARK  297  A    between atoms: _724  and  _725
REMARK  298  A    between atoms: _728  and  _730
REMARK  299  A    between atoms: _730  and  _731
REMARK  300  A    between atoms: _730  and  _733
REMARK  301  A    between atoms: _733  and  _734
REMARK  302  A    between atoms: _736  and  _738
REMARK  303  A    between atoms: _738  and  _739
REMARK  304  A    between atoms: _738  and  _741
REMARK  305  A    between atoms: _741  and  _742
REMARK  306  A    between atoms: _745  and  _747
REMARK  307  A    between atoms: _747  and  _748
REMARK  308  A    between atoms: _747  and  _750
REMARK  309  A    between atoms: _750  and  _751
REMARK  310  A    between atoms: _751  and  _752
REMARK  311  A    between atoms: _752  and  _753
REMARK  312  A    between atoms: _762  and  _764
REMARK  313  A    between atoms: _764  and  _765
REMARK  314  A    between atoms: _764  and  _767
REMARK  315  A    between atoms: _767  and  _768
REMARK  316  A    between atoms: _771  and  _773
REMARK  317  A    between atoms: _773  and  _774
REMARK  318  A    between atoms: _773  and  _776
REMARK  319  A    between atoms: _776  and  _777
REMARK  320  A    between atoms: _777  and  _778
REMARK  321  A    between atoms: _780  and  _782
REMARK  322  A    between atoms: _782  and  _783
REMARK  323  A    between atoms: _782  and  _785
REMARK  324  A    between atoms: _788  and  _790
REMARK  325  A    between atoms: _790  and  _791
REMARK  326  A    between atoms: _790  and  _793
REMARK  327  A    between atoms: _793  and  _794
REMARK                            x       y       z     vdW  Elec       q    Type
REMARK                         _______ _______ _______ _____ _____    ______ ____
ROOT
ATOM      1  O   HOH     1      80.059  -4.289   9.144  0.00  0.00    +0.000 OA
ENDROOT
TORSDOF 0
REMARK  Name = ../refined-set-2016/4omj/4omj_pocket.pdb
REMARK  327 active torsions:
REMARK  status: ('A' for Active; 'I' for Inactive)
REMARK    1  A    between atoms: _1  and  _3
REMARK    2  A    between atoms: _3  and  _4
REMARK    3  A    between atoms: _3  and  _6
REMARK    4  A    between atoms: _6  and  _7
REMARK    5  A    between atoms: _10  and  _12
REMARK    6  A    between atoms: _12  and  _13
REMARK    7  A    between atoms: _12  and  _15
REMARK    8  A    between atoms: _15  and  _16
REMARK    9  A    between atoms: _21  and  _22
REMARK   10  A    between atoms: _24  and  _26
REMARK   11  A    between atoms: _26  and  _27
REMARK   12  A    between atoms: _26  and  _29
REMARK   13  A    between atoms: _29  and  _30
REMARK   14  A    between atoms: _33  and  _35
REMARK   15  A    between atoms: _35  and  _36
REMARK   16  A    between atoms: _35  and  _38
REMARK   17  A    between atoms: _38  and  _39
REMARK   18  A    between atoms: _41  and  _43
REMARK   19  A    between atoms: _43  and  _44
REMARK   20  A    between atoms: _43  and  _46
REMARK   21  A    between atoms: _46  and  _47
REMARK   22  A    between atoms: _57  and  _59
REMARK   23  A    between atoms: _59  and  _60
REMARK   24  A    between atoms: _59  and  _62
REMARK   25  A    between atoms: _62  and  _63
REMARK   26  A    between atoms: _66  and  _68
REMARK   27  A    between atoms: _68  and  _69
REMARK   28  A    between atoms: _68  and  _71
REMARK   29  A    between atoms: _71  and  _72
REMARK   30  A    between atoms: _75  and  _77
REMARK   31  A    between atoms: _77  and  _78
REMARK   32  A    between atoms: _77  and  _80
REMARK   33  A    between atoms: _80  and  _81
REMARK   34  A    between atoms: _84  and  _86
REMARK   35  A    between atoms: _86  and  _87
REMARK   36  A    between atoms: _89  and  _91
REMARK   37  A    between atoms: _91  and  _92
REMARK   38  A    between atoms: _91  and  _94
REMARK   39  A    between atoms: _94  and  _95
REMARK   40  A    between atoms: _98  and  _100
REMARK   41  A    between atoms: _100  and  _101
REMARK   42  A    between atoms: _100  and  _103
REMARK   43  A    between atoms: _103  and  _104
REMARK   44  A    between atoms: _107  and  _109
REMARK   45  A    between atoms: _109  and  _110
REMARK   46  A    between atoms: _113  and  _115
REMARK   47  A    between atoms: _115  and  _116
REMARK   48  A    between atoms: _115  and  _118
REMARK   49  A    between atoms: _118  and  _119
REMARK   50  A    between atoms: _119  and  _120
REMARK   51  A    between atoms: _120  and  _121
REMARK   52  A    between atoms: _121  and  _122
REMARK   53  A    between atoms: _126  and  _128
REMARK   54  A    between atoms: _128  and  _129
REMARK   55  A    between atoms: _131  and  _133
REMARK   56  A    between atoms: _133  and  _134
REMARK   57  A    between atoms: _133  and  _136
REMARK   58  A    between atoms: _136  and  _137
REMARK   59  A    between atoms: _140  and  _142
REMARK   60  A    between atoms: _142  and  _143
REMARK   61  A    between atoms: _142  and  _145
REMARK   62  A    between atoms: _145  and  _146
REMARK   63  A    between atoms: _149  and  _151
REMARK   64  A    between atoms: _151  and  _152
REMARK   65  A    between atoms: _151  and  _154
REMARK   66  A    between atoms: _154  and  _155
REMARK   67  A    between atoms: _161  and  _163
REMARK   68  A    between atoms: _163  and  _164
REMARK   69  A    between atoms: _167  and  _169
REMARK   70  A    between atoms: _169  and  _170
REMARK   71  A    between atoms: _169  and  _172
REMARK   72  A    between atoms: _172  and  _173
REMARK   73  A    between atoms: _175  and  _177
REMARK   74  A    between atoms: _177  and  _178
REMARK   75  A    between atoms: _177  and  _180
REMARK   76  A    between atoms: _180  and  _181
REMARK   77  A    between atoms: _181  and  _182
REMARK   78  A    between atoms: _182  and  _183
REMARK   79  A    between atoms: _183  and  _184
REMARK   80  A    between atoms: _188  and  _190
REMARK   81  A    between atoms: _190  and  _191
REMARK   82  A    between atoms: _190  and  _193
REMARK   83  A    between atoms: _193  and  _194
REMARK   84  A    between atoms: _194  and  _195
REMARK   85  A    between atoms: _200  and  _202
REMARK   86  A    between atoms: _202  and  _203
REMARK   87  A    between atoms: _202  and  _205
REMARK   88  A    between atoms: _205  and  _206
REMARK   89  A    between atoms: _209  and  _211
REMARK   90  A    between atoms: _211  and  _212
REMARK   91  A    between atoms: _211  and  _214
REMARK   92  A    between atoms: _214  and  _215
REMARK   93  A    between atoms: _218  and  _220
REMARK   94  A    between atoms: _220  and  _221
REMARK   95  A    between atoms: _220  and  _223
REMARK   96  A    between atoms: _223  and  _224
REMARK   97  A    between atoms: _227  and  _229
REMARK   98  A    between atoms: _229  and  _230
REMARK   99  A    between atoms: _229  and  _232
REMARK  100  A    between atoms: _232  and  _233
REMARK  101  A    between atoms: _233  and  _234
REMARK  102  A    between atoms: _234  and  _235
REMARK  103  A    between atoms: _244  and  _246
REMARK  104  A    between atoms: _246  and  _247
REMARK  105  A    between atoms: _246  and  _249
REMARK  106  A    between atoms: _249  and  _250
REMARK  107  A    between atoms: _253  and  _255
REMARK  108  A    between atoms: _255  and  _256
REMARK  109  A    between atoms: _255  and  _258
REMARK  110  A    between atoms: _258  and  _259
REMARK  111  A    between atoms: _259  and  _260
REMARK  112  A    between atoms: _260  and  _261
REMARK  113  A    between atoms: _261  and  _262
REMARK  114  A    between atoms: _266  and  _268
REMARK  115  A    between atoms: _268  and  _269
REMARK  116  A    between atoms: _268  and  _271
REMARK  117  A    between atoms: _271  and  _272
REMARK  118  A    between atoms: _272  and  _273
REMARK  119  A    between atoms: _275  and  _277
REMARK  120  A    between atoms: _277  and  _278
REMARK  121  A    between atoms: _277  and  _280
REMARK  122  A    between atoms: _280  and  _281
REMARK  123  A    between atoms: _281  and  _282
REMARK  124  A    between atoms: _285  and  _287
REMARK  125  A    between atoms: _287  and  _288
REMARK  126  A    between atoms: _287  and  _290
REMARK  127  A    between atoms: _292  and  _294
REMARK  128  A    between atoms: _294  and  _295
REMARK  129  A    between atoms: _294  and  _297
REMARK  130  A    between atoms: _297  and  _298
REMARK  131  A    between atoms: _301  and  _303
REMARK  132  A    between atoms: _303  and  _304
REMARK  133  A    between atoms: _303  and  _306
REMARK  134  A    between atoms: _306  and  _307
REMARK  135  A    between atoms: _310  and  _312
REMARK  136  A    between atoms: _312  and  _313
REMARK  137  A    between atoms: _312  and  _315
REMARK  138  A    between atoms: _315  and  _316
REMARK  139  A    between atoms: _319  and  _321
REMARK  140  A    between atoms: _321  and  _322
REMARK  141  A    between atoms: _321  and  _324
REMARK  142  A    between atoms: _324  and  _325
REMARK  143  A    between atoms: _330  and  _331
REMARK  144  A    between atoms: _333  and  _335
REMARK  145  A    between atoms: _335  and  _336
REMARK  146  A    between atoms: _335  and  _338
REMARK  147  A    between atoms: _338  and  _339
REMARK  148  A    between atoms: _342  and  _344
REMARK  149  A    between atoms: _344  and  _345
REMARK  150  A    between atoms: _344  and  _347
REMARK  151  A    between atoms: _349  and  _351
REMARK  152  A    between atoms: _351  and  _352
REMARK  153  A    between atoms: _351  and  _354
REMARK  154  A    between atoms: _354  and  _355
REMARK  155  A    between atoms: _358  and  _360
REMARK  156  A    between atoms: _360  and  _361
REMARK  157  A    between atoms: _363  and  _365
REMARK  158  A    between atoms: _365  and  _366
REMARK  159  A    between atoms: _365  and  _368
REMARK  160  A    between atoms: _368  and  _369
REMARK  161  A    between atoms: _369  and  _370
REMARK  162  A    between atoms: _370  and  _371
REMARK  163  A    between atoms: _371  and  _372
REMARK  164  A    between atoms: _376  and  _378
REMARK  165  A    between atoms: _378  and  _379
REMARK  166  A    between atoms: _378  and  _381
REMARK  167  A    between atoms: _381  and  _382
REMARK  168  A    between atoms: _387  and  _389
REMARK  169  A    between atoms: _389  and  _390
REMARK  170  A    between atoms: _389  and  _392
REMARK  171  A    between atoms: _392  and  _393
REMARK  172  A    between atoms: _396  and  _398
REMARK  173  A    between atoms: _398  and  _399
REMARK  174  A    between atoms: _398  and  _401
REMARK  175  A    between atoms: _401  and  _402
REMARK  176  A    between atoms: _412  and  _414
REMARK  177  A    between atoms: _414  and  _415
REMARK  178  A    between atoms: _414  and  _417
REMARK  179  A    between atoms: _417  and  _418
REMARK  180  A    between atoms: _418  and  _419
REMARK  181  A    between atoms: _419  and  _420
REMARK  182  A    between atoms: _420  and  _421
REMARK  183  A    between atoms: _426  and  _427
REMARK  184  A    between atoms: _432  and  _434
REMARK  185  A    between atoms: _434  and  _435
REMARK  186  A    between atoms: _438  and  _440
REMARK  187  A    between atoms: _440  and  _441
REMARK  188  A    between atoms: _440  and  _443
REMARK  189  A    between atoms: _446  and  _448
REMARK  190  A    between atoms: _448  and  _449
REMARK  191  A    between atoms: _448  and  _451
REMARK  192  A    between atoms: _451  and  _452
REMARK  193  A    between atoms: _452  and  _453
REMARK  194  A    between atoms: _456  and  _458
REMARK  195  A    between atoms: _458  and  _459
REMARK  196  A    between atoms: _462  and  _464
REMARK  197  A    between atoms: _464  and  _465
REMARK  198  A    between atoms: _464  and  _467
REMARK  199  A    between atoms: _467  and  _468
REMARK  200  A    between atoms: _473  and  _474
REMARK  201  A    between atoms: _476  and  _478
REMARK  202  A    between atoms: _478  and  _479
REMARK  203  A    between atoms: _481  and  _483
REMARK  204  A    between atoms: _483  and  _484
REMARK  205  A    between atoms: _483  and  _486
REMARK  206  A    between atoms: _486  and  _487
REMARK  207  A    between atoms: _487  and  _488
REMARK  208  A    between atoms: _491  and  _493
REMARK  209  A    between atoms: _493  and  _494
REMARK  210  A    between atoms: _493  and  _496
REMARK  211  A    between atoms: _496  and  _497
REMARK  212  A    between atoms: _503  and  _505
REMARK  213  A    between atoms: _505  and  _506
REMARK  214  A    between atoms: _505  and  _508
REMARK  215  A    between atoms: _508  and  _509
REMARK  216  A    between atoms: _512  and  _514
REMARK  217  A    between atoms: _514  and  _515
REMARK  218  A    between atoms: _514  and  _517
REMARK  219  A    between atoms: _519  and  _521
REMARK  220  A    between atoms: _521  and  _522
REMARK  221  A    between atoms: _521  and  _524
REMARK  222  A    between atoms: _524  and  _525
REMARK  223  A    between atoms: _531  and  _533
REMARK  224  A    between atoms: _533  and  _534
REMARK  225  A    between atoms: _533  and  _536
REMARK  226  A    between atoms: _536  and  _537
REMARK  227  A    between atoms: _537  and  _538
REMARK  228  A    between atoms: _541  and  _543
REMARK  229  A    between atoms: _543  and  _544
REMARK  230  A    between atoms: _543  and  _546
REMARK  231  A    between atoms: _546  and  _547
REMARK  232  A    between atoms: _550  and  _552
REMARK  233  A    between atoms: _552  and  _553
REMARK  234  A    between atoms: _552  and  _555
REMARK  235  A    between atoms: _555  and  _556
REMARK  236  A    between atoms: _556  and  _557
REMARK  237  A    between atoms: _557  and  _558
REMARK  238  A    between atoms: _567  and  _569
REMARK  239  A    between atoms: _569  and  _570
REMARK  240  A    between atoms: _569  and  _572
REMARK  241  A    between atoms: _572  and  _573
REMARK  242  A    between atoms: _576  and  _578
REMARK  243  A    between atoms: _578  and  _579
REMARK  244  A    between atoms: _578  and  _581
REMARK  245  A    between atoms: _581  and  _582
REMARK  246  A    between atoms: _588  and  _590
REMARK  247  A    between atoms: _590  and  _591
REMARK  248  A    between atoms: _590  and  _593
REMARK  249  A    between atoms: _596  and  _598
REMARK  250  A    between atoms: _598  and  _599
REMARK  251  A    between atoms: _603  and  _604
REMARK  252  A    between atoms: _609  and  _611
REMARK  253  A    between atoms: _611  and  _612
REMARK  254  A    between atoms: _611  and  _614
REMARK  255  A    between atoms: _614  and  _615
REMARK  256  A    between atoms: _618  and  _620
REMARK  257  A    between atoms: _620  and  _621
REMARK  258  A    between atoms: _620  and  _623
REMARK  259  A    between atoms: _623  and  _624
REMARK  260  A    between atoms: _631  and  _632
REMARK  261  A    between atoms: _637  and  _639
REMARK  262  A    between atoms: _639  and  _640
REMARK  263  A    between atoms: _639  and  _642
REMARK  264  A    between atoms: _645  and  _647
REMARK  265  A    between atoms: _647  and  _648
REMARK  266  A    between atoms: _651  and  _653
REMARK  267  A    between atoms: _653  and  _654
REMARK  268  A    between atoms: _653  and  _656
REMARK  269  A    between atoms: _656  and  _657
REMARK  270  A    between atoms: _662  and  _663
REMARK  271  A    between atoms: _665  and  _667
REMARK  272  A    between atoms: _667  and  _668
REMARK  273  A    between atoms: _667  and  _670
REMARK  274  A    between atoms: _670  and  _671
REMARK  275  A    between atoms: _676  and  _678
REMARK  276  A    between atoms: _678  and  _679
REMARK  277  A    between atoms: _678  and  _681
REMARK  278  A    between atoms: _681  and  _682
REMARK  279  A    between atoms: _685  and  _687
REMARK  280  A    between atoms: _687  and  _688
REMARK  281  A    between atoms: _687  and  _690
REMARK  282  A    between atoms: _690  and  _691
REMARK  283  A    between atoms: _694  and  _696
REMARK  284  A    between atoms: _696  and  _697
REMARK  285  A    between atoms: _696  and  _699
REMARK  286  A    between atoms: _699  and  _700
REMARK  287  A    between atoms: _700  and  _701
REMARK  288  A    between atoms: _701  and  _702
REMARK  289  A    between atoms: _702  and  _703
REMARK  290  A    between atoms: _707  and  _709
REMARK  291  A    between atoms: _709  and  _710
REMARK  292  A    between atoms: _709  and  _712
REMARK  293  A    between atoms: _712  and  _713
REMARK  294  A    between atoms: _719  and  _721
REMARK  295  A    between atoms: _721  and  _722
REMARK  296  A    between atoms: _721  and  _724
REMARK  297  A    between atoms: _724  and  _725
REMARK  298  A    between atoms: _728  and  _730
REMARK  299  A    between atoms: _730  and  _731
REMARK  300  A    between atoms: _730  and  _733
REMARK  301  A    between atoms: _733  and  _734
REMARK  302  A    between atoms: _736  and  _738
REMARK  303  A    between atoms: _738  and  _739
REMARK  304  A    between atoms: _738  and  _741
REMARK  305  A    between atoms: _741  and  _742
REMARK  306  A    between atoms: _745  and  _747
REMARK  307  A    between atoms: _747  and  _748
REMARK  308  A    between atoms: _747  and  _750
REMARK  309  A    between atoms: _750  and  _751
REMARK  310  A    between atoms: _751  and  _752
REMARK  311  A    between atoms: _752  and  _753
REMARK  312  A    between atoms: _762  and  _764
REMARK  313  A    between atoms: _764  and  _765
REMARK  314  A    between atoms: _764  and  _767
REMARK  315  A    between atoms: _767  and  _768
REMARK  316  A    between atoms: _771  and  _773
REMARK  317  A    between atoms: _773  and  _774
REMARK  318  A    between atoms: _773  and  _776
REMARK  319  A    between atoms: _776  and  _777
REMARK  320  A    between atoms: _777  and  _778
REMARK  321  A    between atoms: _780  and  _782
REMARK  322  A    between atoms: _782  and  _783
REMARK  323  A    between atoms: _782  and  _785
REMARK  324  A    between atoms: _788  and  _790
REMARK  325  A    between atoms: _790  and  _791
REMARK  326  A    between atoms: _790  and  _793
REMARK  327  A    between atoms: _793  and  _794
REMARK                            x       y       z     vdW  Elec       q    Type
REMARK                         _______ _______ _______ _____ _____    ______ ____
ROOT
ATOM      1  O   HOH     1      89.335   5.763  -0.306  0.00  0.00    +0.000 OA
ENDROOT
TORSDOF 0
REMARK  Name = ../refined-set-2016/4omj/4omj_pocket.pdb
REMARK  327 active torsions:
REMARK  status: ('A' for Active; 'I' for Inactive)
REMARK    1  A    between atoms: _1  and  _3
REMARK    2  A    between atoms: _3  and  _4
REMARK    3  A    between atoms: _3  and  _6
REMARK    4  A    between atoms: _6  and  _7
REMARK    5  A    between atoms: _10  and  _12
REMARK    6  A    between atoms: _12  and  _13
REMARK    7  A    between atoms: _12  and  _15
REMARK    8  A    between atoms: _15  and  _16
REMARK    9  A    between atoms: _21  and  _22
REMARK   10  A    between atoms: _24  and  _26
REMARK   11  A    between atoms: _26  and  _27
REMARK   12  A    between atoms: _26  and  _29
REMARK   13  A    between atoms: _29  and  _30
REMARK   14  A    between atoms: _33  and  _35
REMARK   15  A    between atoms: _35  and  _36
REMARK   16  A    between atoms: _35  and  _38
REMARK   17  A    between atoms: _38  and  _39
REMARK   18  A    between atoms: _41  and  _43
REMARK   19  A    between atoms: _43  and  _44
REMARK   20  A    between atoms: _43  and  _46
REMARK   21  A    between atoms: _46  and  _47
REMARK   22  A    between atoms: _57  and  _59
REMARK   23  A    between atoms: _59  and  _60
REMARK   24  A    between atoms: _59  and  _62
REMARK   25  A    between atoms: _62  and  _63
REMARK   26  A    between atoms: _66  and  _68
REMARK   27  A    between atoms: _68  and  _69
REMARK   28  A    between atoms: _68  and  _71
REMARK   29  A    between atoms: _71  and  _72
REMARK   30  A    between atoms: _75  and  _77
REMARK   31  A    between atoms: _77  and  _78
REMARK   32  A    between atoms: _77  and  _80
REMARK   33  A    between atoms: _80  and  _81
REMARK   34  A    between atoms: _84  and  _86
REMARK   35  A    between atoms: _86  and  _87
REMARK   36  A    between atoms: _89  and  _91
REMARK   37  A    between atoms: _91  and  _92
REMARK   38  A    between atoms: _91  and  _94
REMARK   39  A    between atoms: _94  and  _95
REMARK   40  A    between atoms: _98  and  _100
REMARK   41  A    between atoms: _100  and  _101
REMARK   42  A    between atoms: _100  and  _103
REMARK   43  A    between atoms: _103  and  _104
REMARK   44  A    between atoms: _107  and  _109
REMARK   45  A    between atoms: _109  and  _110
REMARK   46  A    between atoms: _113  and  _115
REMARK   47  A    between atoms: _115  and  _116
REMARK   48  A    between atoms: _115  and  _118
REMARK   49  A    between atoms: _118  and  _119
REMARK   50  A    between atoms: _119  and  _120
REMARK   51  A    between atoms: _120  and  _121
REMARK   52  A    between atoms: _121  and  _122
REMARK   53  A    between atoms: _126  and  _128
REMARK   54  A    between atoms: _128  and  _129
REMARK   55  A    between atoms: _131  and  _133
REMARK   56  A    between atoms: _133  and  _134
REMARK   57  A    between atoms: _133  and  _136
REMARK   58  A    between atoms: _136  and  _137
REMARK   59  A    between atoms: _140  and  _142
REMARK   60  A    between atoms: _142  and  _143
REMARK   61  A    between atoms: _142  and  _145
REMARK   62  A    between atoms: _145  and  _146
REMARK   63  A    between atoms: _149  and  _151
REMARK   64  A    between atoms: _151  and  _152
REMARK   65  A    between atoms: _151  and  _154
REMARK   66  A    between atoms: _154  and  _155
REMARK   67  A    between atoms: _161  and  _163
REMARK   68  A    between atoms: _163  and  _164
REMARK   69  A    between atoms: _167  and  _169
REMARK   70  A    between atoms: _169  and  _170
REMARK   71  A    between atoms: _169  and  _172
REMARK   72  A    between atoms: _172  and  _173
REMARK   73  A    between atoms: _175  and  _177
REMARK   74  A    between atoms: _177  and  _178
REMARK   75  A    between atoms: _177  and  _180
REMARK   76  A    between atoms: _180  and  _181
REMARK   77  A    between atoms: _181  and  _182
REMARK   78  A    between atoms: _182  and  _183
REMARK   79  A    between atoms: _183  and  _184
REMARK   80  A    between atoms: _188  and  _190
REMARK   81  A    between atoms: _190  and  _191
REMARK   82  A    between atoms: _190  and  _193
REMARK   83  A    between atoms: _193  and  _194
REMARK   84  A    between atoms: _194  and  _195
REMARK   85  A    between atoms: _200  and  _202
REMARK   86  A    between atoms: _202  and  _203
REMARK   87  A    between atoms: _202  and  _205
REMARK   88  A    between atoms: _205  and  _206
REMARK   89  A    between atoms: _209  and  _211
REMARK   90  A    between atoms: _211  and  _212
REMARK   91  A    between atoms: _211  and  _214
REMARK   92  A    between atoms: _214  and  _215
REMARK   93  A    between atoms: _218  and  _220
REMARK   94  A    between atoms: _220  and  _221
REMARK   95  A    between atoms: _220  and  _223
REMARK   96  A    between atoms: _223  and  _224
REMARK   97  A    between atoms: _227  and  _229
REMARK   98  A    between atoms: _229  and  _230
REMARK   99  A    between atoms: _229  and  _232
REMARK  100  A    between atoms: _232  and  _233
REMARK  101  A    between atoms: _233  and  _234
REMARK  102  A    between atoms: _234  and  _235
REMARK  103  A    between atoms: _244  and  _246
REMARK  104  A    between atoms: _246  and  _247
REMARK  105  A    between atoms: _246  and  _249
REMARK  106  A    between atoms: _249  and  _250
REMARK  107  A    between atoms: _253  and  _255
REMARK  108  A    between atoms: _255  and  _256
REMARK  109  A    between atoms: _255  and  _258
REMARK  110  A    between atoms: _258  and  _259
REMARK  111  A    between atoms: _259  and  _260
REMARK  112  A    between atoms: _260  and  _261
REMARK  113  A    between atoms: _261  and  _262
REMARK  114  A    between atoms: _266  and  _268
REMARK  115  A    between atoms: _268  and  _269
REMARK  116  A    between atoms: _268  and  _271
REMARK  117  A    between atoms: _271  and  _272
REMARK  118  A    between atoms: _272  and  _273
REMARK  119  A    between atoms: _275  and  _277
REMARK  120  A    between atoms: _277  and  _278
REMARK  121  A    between atoms: _277  and  _280
REMARK  122  A    between atoms: _280  and  _281
REMARK  123  A    between atoms: _281  and  _282
REMARK  124  A    between atoms: _285  and  _287
REMARK  125  A    between atoms: _287  and  _288
REMARK  126  A    between atoms: _287  and  _290
REMARK  127  A    between atoms: _292  and  _294
REMARK  128  A    between atoms: _294  and  _295
REMARK  129  A    between atoms: _294  and  _297
REMARK  130  A    between atoms: _297  and  _298
REMARK  131  A    between atoms: _301  and  _303
REMARK  132  A    between atoms: _303  and  _304
REMARK  133  A    between atoms: _303  and  _306
REMARK  134  A    between atoms: _306  and  _307
REMARK  135  A    between atoms: _310  and  _312
REMARK  136  A    between atoms: _312  and  _313
REMARK  137  A    between atoms: _312  and  _315
REMARK  138  A    between atoms: _315  and  _316
REMARK  139  A    between atoms: _319  and  _321
REMARK  140  A    between atoms: _321  and  _322
REMARK  141  A    between atoms: _321  and  _324
REMARK  142  A    between atoms: _324  and  _325
REMARK  143  A    between atoms: _330  and  _331
REMARK  144  A    between atoms: _333  and  _335
REMARK  145  A    between atoms: _335  and  _336
REMARK  146  A    between atoms: _335  and  _338
REMARK  147  A    between atoms: _338  and  _339
REMARK  148  A    between atoms: _342  and  _344
REMARK  149  A    between atoms: _344  and  _345
REMARK  150  A    between atoms: _344  and  _347
REMARK  151  A    between atoms: _349  and  _351
REMARK  152  A    between atoms: _351  and  _352
REMARK  153  A    between atoms: _351  and  _354
REMARK  154  A    between atoms: _354  and  _355
REMARK  155  A    between atoms: _358  and  _360
REMARK  156  A    between atoms: _360  and  _361
REMARK  157  A    between atoms: _363  and  _365
REMARK  158  A    between atoms: _365  and  _366
REMARK  159  A    between atoms: _365  and  _368
REMARK  160  A    between atoms: _368  and  _369
REMARK  161  A    between atoms: _369  and  _370
REMARK  162  A    between atoms: _370  and  _371
REMARK  163  A    between atoms: _371  and  _372
REMARK  164  A    between atoms: _376  and  _378
REMARK  165  A    between atoms: _378  and  _379
REMARK  166  A    between atoms: _378  and  _381
REMARK  167  A    between atoms: _381  and  _382
REMARK  168  A    between atoms: _387  and  _389
REMARK  169  A    between atoms: _389  and  _390
REMARK  170  A    between atoms: _389  and  _392
REMARK  171  A    between atoms: _392  and  _393
REMARK  172  A    between atoms: _396  and  _398
REMARK  173  A    between atoms: _398  and  _399
REMARK  174  A    between atoms: _398  and  _401
REMARK  175  A    between atoms: _401  and  _402
REMARK  176  A    between atoms: _412  and  _414
REMARK  177  A    between atoms: _414  and  _415
REMARK  178  A    between atoms: _414  and  _417
REMARK  179  A    between atoms: _417  and  _418
REMARK  180  A    between atoms: _418  and  _419
REMARK  181  A    between atoms: _419  and  _420
REMARK  182  A    between atoms: _420  and  _421
REMARK  183  A    between atoms: _426  and  _427
REMARK  184  A    between atoms: _432  and  _434
REMARK  185  A    between atoms: _434  and  _435
REMARK  186  A    between atoms: _438  and  _440
REMARK  187  A    between atoms: _440  and  _441
REMARK  188  A    between atoms: _440  and  _443
REMARK  189  A    between atoms: _446  and  _448
REMARK  190  A    between atoms: _448  and  _449
REMARK  191  A    between atoms: _448  and  _451
REMARK  192  A    between atoms: _451  and  _452
REMARK  193  A    between atoms: _452  and  _453
REMARK  194  A    between atoms: _456  and  _458
REMARK  195  A    between atoms: _458  and  _459
REMARK  196  A    between atoms: _462  and  _464
REMARK  197  A    between atoms: _464  and  _465
REMARK  198  A    between atoms: _464  and  _467
REMARK  199  A    between atoms: _467  and  _468
REMARK  200  A    between atoms: _473  and  _474
REMARK  201  A    between atoms: _476  and  _478
REMARK  202  A    between atoms: _478  and  _479
REMARK  203  A    between atoms: _481  and  _483
REMARK  204  A    between atoms: _483  and  _484
REMARK  205  A    between atoms: _483  and  _486
REMARK  206  A    between atoms: _486  and  _487
REMARK  207  A    between atoms: _487  and  _488
REMARK  208  A    between atoms: _491  and  _493
REMARK  209  A    between atoms: _493  and  _494
REMARK  210  A    between atoms: _493  and  _496
REMARK  211  A    between atoms: _496  and  _497
REMARK  212  A    between atoms: _503  and  _505
REMARK  213  A    between atoms: _505  and  _506
REMARK  214  A    between atoms: _505  and  _508
REMARK  215  A    between atoms: _508  and  _509
REMARK  216  A    between atoms: _512  and  _514
REMARK  217  A    between atoms: _514  and  _515
REMARK  218  A    between atoms: _514  and  _517
REMARK  219  A    between atoms: _519  and  _521
REMARK  220  A    between atoms: _521  and  _522
REMARK  221  A    between atoms: _521  and  _524
REMARK  222  A    between atoms: _524  and  _525
REMARK  223  A    between atoms: _531  and  _533
REMARK  224  A    between atoms: _533  and  _534
REMARK  225  A    between atoms: _533  and  _536
REMARK  226  A    between atoms: _536  and  _537
REMARK  227  A    between atoms: _537  and  _538
REMARK  228  A    between atoms: _541  and  _543
REMARK  229  A    between atoms: _543  and  _544
REMARK  230  A    between atoms: _543  and  _546
REMARK  231  A    between atoms: _546  and  _547
REMARK  232  A    between atoms: _550  and  _552
REMARK  233  A    between atoms: _552  and  _553
REMARK  234  A    between atoms: _552  and  _555
REMARK  235  A    between atoms: _555  and  _556
REMARK  236  A    between atoms: _556  and  _557
REMARK  237  A    between atoms: _557  and  _558
REMARK  238  A    between atoms: _567  and  _569
REMARK  239  A    between atoms: _569  and  _570
REMARK  240  A    between atoms: _569  and  _572
REMARK  241  A    between atoms: _572  and  _573
REMARK  242  A    between atoms: _576  and  _578
REMARK  243  A    between atoms: _578  and  _579
REMARK  244  A    between atoms: _578  and  _581
REMARK  245  A    between atoms: _581  and  _582
REMARK  246  A    between atoms: _588  and  _590
REMARK  247  A    between atoms: _590  and  _591
REMARK  248  A    between atoms: _590  and  _593
REMARK  249  A    between atoms: _596  and  _598
REMARK  250  A    between atoms: _598  and  _599
REMARK  251  A    between atoms: _603  and  _604
REMARK  252  A    between atoms: _609  and  _611
REMARK  253  A    between atoms: _611  and  _612
REMARK  254  A    between atoms: _611  and  _614
REMARK  255  A    between atoms: _614  and  _615
REMARK  256  A    between atoms: _618  and  _620
REMARK  257  A    between atoms: _620  and  _621
REMARK  258  A    between atoms: _620  and  _623
REMARK  259  A    between atoms: _623  and  _624
REMARK  260  A    between atoms: _631  and  _632
REMARK  261  A    between atoms: _637  and  _639
REMARK  262  A    between atoms: _639  and  _640
REMARK  263  A    between atoms: _639  and  _642
REMARK  264  A    between atoms: _645  and  _647
REMARK  265  A    between atoms: _647  and  _648
REMARK  266  A    between atoms: _651  and  _653
REMARK  267  A    between atoms: _653  and  _654
REMARK  268  A    between atoms: _653  and  _656
REMARK  269  A    between atoms: _656  and  _657
REMARK  270  A    between atoms: _662  and  _663
REMARK  271  A    between atoms: _665  and  _667
REMARK  272  A    between atoms: _667  and  _668
REMARK  273  A    between atoms: _667  and  _670
REMARK  274  A    between atoms: _670  and  _671
REMARK  275  A    between atoms: _676  and  _678
REMARK  276  A    between atoms: _678  and  _679
REMARK  277  A    between atoms: _678  and  _681
REMARK  278  A    between atoms: _681  and  _682
REMARK  279  A    between atoms: _685  and  _687
REMARK  280  A    between atoms: _687  and  _688
REMARK  281  A    between atoms: _687  and  _690
REMARK  282  A    between atoms: _690  and  _691
REMARK  283  A    between atoms: _694  and  _696
REMARK  284  A    between atoms: _696  and  _697
REMARK  285  A    between atoms: _696  and  _699
REMARK  286  A    between atoms: _699  and  _700
REMARK  287  A    between atoms: _700  and  _701
REMARK  288  A    between atoms: _701  and  _702
REMARK  289  A    between atoms: _702  and  _703
REMARK  290  A    between atoms: _707  and  _709
REMARK  291  A    between atoms: _709  and  _710
REMARK  292  A    between atoms: _709  and  _712
REMARK  293  A    between atoms: _712  and  _713
REMARK  294  A    between atoms: _719  and  _721
REMARK  295  A    between atoms: _721  and  _722
REMARK  296  A    between atoms: _721  and  _724
REMARK  297  A    between atoms: _724  and  _725
REMARK  298  A    between atoms: _728  and  _730
REMARK  299  A    between atoms: _730  and  _731
REMARK  300  A    between atoms: _730  and  _733
REMARK  301  A    between atoms: _733  and  _734
REMARK  302  A    between atoms: _736  and  _738
REMARK  303  A    between atoms: _738  and  _739
REMARK  304  A    between atoms: _738  and  _741
REMARK  305  A    between atoms: _741  and  _742
REMARK  306  A    between atoms: _745  and  _747
REMARK  307  A    between atoms: _747  and  _748
REMARK  308  A    between atoms: _747  and  _750
REMARK  309  A    between atoms: _750  and  _751
REMARK  310  A    between atoms: _751  and  _752
REMARK  311  A    between atoms: _752  and  _753
REMARK  312  A    between atoms: _762  and  _764
REMARK  313  A    between atoms: _764  and  _765
REMARK  314  A    between atoms: _764  and  _767
REMARK  315  A    between atoms: _767  and  _768
REMARK  316  A    between atoms: _771  and  _773
REMARK  317  A    between atoms: _773  and  _774
REMARK  318  A    between atoms: _773  and  _776
REMARK  319  A    between atoms: _776  and  _777
REMARK  320  A    between atoms: _777  and  _778
REMARK  321  A    between atoms: _780  and  _782
REMARK  322  A    between atoms: _782  and  _783
REMARK  323  A    between atoms: _782  and  _785
REMARK  324  A    between atoms: _788  and  _790
REMARK  325  A    between atoms: _790  and  _791
REMARK  326  A    between atoms: _790  and  _793
REMARK  327  A    between atoms: _793  and  _794
REMARK                            x       y       z     vdW  Elec       q    Type
REMARK                         _______ _______ _______ _____ _____    ______ ____
ROOT
ATOM      1  O   HOH     1      84.642  17.984  10.506  0.00  0.00    +0.000 OA
ENDROOT
TORSDOF 0
REMARK  Name = ../refined-set-2016/4omj/4omj_pocket.pdb
REMARK  327 active torsions:
REMARK  status: ('A' for Active; 'I' for Inactive)
REMARK    1  A    between atoms: _1  and  _3
REMARK    2  A    between atoms: _3  and  _4
REMARK    3  A    between atoms: _3  and  _6
REMARK    4  A    between atoms: _6  and  _7
REMARK    5  A    between atoms: _10  and  _12
REMARK    6  A    between atoms: _12  and  _13
REMARK    7  A    between atoms: _12  and  _15
REMARK    8  A    between atoms: _15  and  _16
REMARK    9  A    between atoms: _21  and  _22
REMARK   10  A    between atoms: _24  and  _26
REMARK   11  A    between atoms: _26  and  _27
REMARK   12  A    between atoms: _26  and  _29
REMARK   13  A    between atoms: _29  and  _30
REMARK   14  A    between atoms: _33  and  _35
REMARK   15  A    between atoms: _35  and  _36
REMARK   16  A    between atoms: _35  and  _38
REMARK   17  A    between atoms: _38  and  _39
REMARK   18  A    between atoms: _41  and  _43
REMARK   19  A    between atoms: _43  and  _44
REMARK   20  A    between atoms: _43  and  _46
REMARK   21  A    between atoms: _46  and  _47
REMARK   22  A    between atoms: _57  and  _59
REMARK   23  A    between atoms: _59  and  _60
REMARK   24  A    between atoms: _59  and  _62
REMARK   25  A    between atoms: _62  and  _63
REMARK   26  A    between atoms: _66  and  _68
REMARK   27  A    between atoms: _68  and  _69
REMARK   28  A    between atoms: _68  and  _71
REMARK   29  A    between atoms: _71  and  _72
REMARK   30  A    between atoms: _75  and  _77
REMARK   31  A    between atoms: _77  and  _78
REMARK   32  A    between atoms: _77  and  _80
REMARK   33  A    between atoms: _80  and  _81
REMARK   34  A    between atoms: _84  and  _86
REMARK   35  A    between atoms: _86  and  _87
REMARK   36  A    between atoms: _89  and  _91
REMARK   37  A    between atoms: _91  and  _92
REMARK   38  A    between atoms: _91  and  _94
REMARK   39  A    between atoms: _94  and  _95
REMARK   40  A    between atoms: _98  and  _100
REMARK   41  A    between atoms: _100  and  _101
REMARK   42  A    between atoms: _100  and  _103
REMARK   43  A    between atoms: _103  and  _104
REMARK   44  A    between atoms: _107  and  _109
REMARK   45  A    between atoms: _109  and  _110
REMARK   46  A    between atoms: _113  and  _115
REMARK   47  A    between atoms: _115  and  _116
REMARK   48  A    between atoms: _115  and  _118
REMARK   49  A    between atoms: _118  and  _119
REMARK   50  A    between atoms: _119  and  _120
REMARK   51  A    between atoms: _120  and  _121
REMARK   52  A    between atoms: _121  and  _122
REMARK   53  A    between atoms: _126  and  _128
REMARK   54  A    between atoms: _128  and  _129
REMARK   55  A    between atoms: _131  and  _133
REMARK   56  A    between atoms: _133  and  _134
REMARK   57  A    between atoms: _133  and  _136
REMARK   58  A    between atoms: _136  and  _137
REMARK   59  A    between atoms: _140  and  _142
REMARK   60  A    between atoms: _142  and  _143
REMARK   61  A    between atoms: _142  and  _145
REMARK   62  A    between atoms: _145  and  _146
REMARK   63  A    between atoms: _149  and  _151
REMARK   64  A    between atoms: _151  and  _152
REMARK   65  A    between atoms: _151  and  _154
REMARK   66  A    between atoms: _154  and  _155
REMARK   67  A    between atoms: _161  and  _163
REMARK   68  A    between atoms: _163  and  _164
REMARK   69  A    between atoms: _167  and  _169
REMARK   70  A    between atoms: _169  and  _170
REMARK   71  A    between atoms: _169  and  _172
REMARK   72  A    between atoms: _172  and  _173
REMARK   73  A    between atoms: _175  and  _177
REMARK   74  A    between atoms: _177  and  _178
REMARK   75  A    between atoms: _177  and  _180
REMARK   76  A    between atoms: _180  and  _181
REMARK   77  A    between atoms: _181  and  _182
REMARK   78  A    between atoms: _182  and  _183
REMARK   79  A    between atoms: _183  and  _184
REMARK   80  A    between atoms: _188  and  _190
REMARK   81  A    between atoms: _190  and  _191
REMARK   82  A    between atoms: _190  and  _193
REMARK   83  A    between atoms: _193  and  _194
REMARK   84  A    between atoms: _194  and  _195
REMARK   85  A    between atoms: _200  and  _202
REMARK   86  A    between atoms: _202  and  _203
REMARK   87  A    between atoms: _202  and  _205
REMARK   88  A    between atoms: _205  and  _206
REMARK   89  A    between atoms: _209  and  _211
REMARK   90  A    between atoms: _211  and  _212
REMARK   91  A    between atoms: _211  and  _214
REMARK   92  A    between atoms: _214  and  _215
REMARK   93  A    between atoms: _218  and  _220
REMARK   94  A    between atoms: _220  and  _221
REMARK   95  A    between atoms: _220  and  _223
REMARK   96  A    between atoms: _223  and  _224
REMARK   97  A    between atoms: _227  and  _229
REMARK   98  A    between atoms: _229  and  _230
REMARK   99  A    between atoms: _229  and  _232
REMARK  100  A    between atoms: _232  and  _233
REMARK  101  A    between atoms: _233  and  _234
REMARK  102  A    between atoms: _234  and  _235
REMARK  103  A    between atoms: _244  and  _246
REMARK  104  A    between atoms: _246  and  _247
REMARK  105  A    between atoms: _246  and  _249
REMARK  106  A    between atoms: _249  and  _250
REMARK  107  A    between atoms: _253  and  _255
REMARK  108  A    between atoms: _255  and  _256
REMARK  109  A    between atoms: _255  and  _258
REMARK  110  A    between atoms: _258  and  _259
REMARK  111  A    between atoms: _259  and  _260
REMARK  112  A    between atoms: _260  and  _261
REMARK  113  A    between atoms: _261  and  _262
REMARK  114  A    between atoms: _266  and  _268
REMARK  115  A    between atoms: _268  and  _269
REMARK  116  A    between atoms: _268  and  _271
REMARK  117  A    between atoms: _271  and  _272
REMARK  118  A    between atoms: _272  and  _273
REMARK  119  A    between atoms: _275  and  _277
REMARK  120  A    between atoms: _277  and  _278
REMARK  121  A    between atoms: _277  and  _280
REMARK  122  A    between atoms: _280  and  _281
REMARK  123  A    between atoms: _281  and  _282
REMARK  124  A    between atoms: _285  and  _287
REMARK  125  A    between atoms: _287  and  _288
REMARK  126  A    between atoms: _287  and  _290
REMARK  127  A    between atoms: _292  and  _294
REMARK  128  A    between atoms: _294  and  _295
REMARK  129  A    between atoms: _294  and  _297
REMARK  130  A    between atoms: _297  and  _298
REMARK  131  A    between atoms: _301  and  _303
REMARK  132  A    between atoms: _303  and  _304
REMARK  133  A    between atoms: _303  and  _306
REMARK  134  A    between atoms: _306  and  _307
REMARK  135  A    between atoms: _310  and  _312
REMARK  136  A    between atoms: _312  and  _313
REMARK  137  A    between atoms: _312  and  _315
REMARK  138  A    between atoms: _315  and  _316
REMARK  139  A    between atoms: _319  and  _321
REMARK  140  A    between atoms: _321  and  _322
REMARK  141  A    between atoms: _321  and  _324
REMARK  142  A    between atoms: _324  and  _325
REMARK  143  A    between atoms: _330  and  _331
REMARK  144  A    between atoms: _333  and  _335
REMARK  145  A    between atoms: _335  and  _336
REMARK  146  A    between atoms: _335  and  _338
REMARK  147  A    between atoms: _338  and  _339
REMARK  148  A    between atoms: _342  and  _344
REMARK  149  A    between atoms: _344  and  _345
REMARK  150  A    between atoms: _344  and  _347
REMARK  151  A    between atoms: _349  and  _351
REMARK  152  A    between atoms: _351  and  _352
REMARK  153  A    between atoms: _351  and  _354
REMARK  154  A    between atoms: _354  and  _355
REMARK  155  A    between atoms: _358  and  _360
REMARK  156  A    between atoms: _360  and  _361
REMARK  157  A    between atoms: _363  and  _365
REMARK  158  A    between atoms: _365  and  _366
REMARK  159  A    between atoms: _365  and  _368
REMARK  160  A    between atoms: _368  and  _369
REMARK  161  A    between atoms: _369  and  _370
REMARK  162  A    between atoms: _370  and  _371
REMARK  163  A    between atoms: _371  and  _372
REMARK  164  A    between atoms: _376  and  _378
REMARK  165  A    between atoms: _378  and  _379
REMARK  166  A    between atoms: _378  and  _381
REMARK  167  A    between atoms: _381  and  _382
REMARK  168  A    between atoms: _387  and  _389
REMARK  169  A    between atoms: _389  and  _390
REMARK  170  A    between atoms: _389  and  _392
REMARK  171  A    between atoms: _392  and  _393
REMARK  172  A    between atoms: _396  and  _398
REMARK  173  A    between atoms: _398  and  _399
REMARK  174  A    between atoms: _398  and  _401
REMARK  175  A    between atoms: _401  and  _402
REMARK  176  A    between atoms: _412  and  _414
REMARK  177  A    between atoms: _414  and  _415
REMARK  178  A    between atoms: _414  and  _417
REMARK  179  A    between atoms: _417  and  _418
REMARK  180  A    between atoms: _418  and  _419
REMARK  181  A    between atoms: _419  and  _420
REMARK  182  A    between atoms: _420  and  _421
REMARK  183  A    between atoms: _426  and  _427
REMARK  184  A    between atoms: _432  and  _434
REMARK  185  A    between atoms: _434  and  _435
REMARK  186  A    between atoms: _438  and  _440
REMARK  187  A    between atoms: _440  and  _441
REMARK  188  A    between atoms: _440  and  _443
REMARK  189  A    between atoms: _446  and  _448
REMARK  190  A    between atoms: _448  and  _449
REMARK  191  A    between atoms: _448  and  _451
REMARK  192  A    between atoms: _451  and  _452
REMARK  193  A    between atoms: _452  and  _453
REMARK  194  A    between atoms: _456  and  _458
REMARK  195  A    between atoms: _458  and  _459
REMARK  196  A    between atoms: _462  and  _464
REMARK  197  A    between atoms: _464  and  _465
REMARK  198  A    between atoms: _464  and  _467
REMARK  199  A    between atoms: _467  and  _468
REMARK  200  A    between atoms: _473  and  _474
REMARK  201  A    between atoms: _476  and  _478
REMARK  202  A    between atoms: _478  and  _479
REMARK  203  A    between atoms: _481  and  _483
REMARK  204  A    between atoms: _483  and  _484
REMARK  205  A    between atoms: _483  and  _486
REMARK  206  A    between atoms: _486  and  _487
REMARK  207  A    between atoms: _487  and  _488
REMARK  208  A    between atoms: _491  and  _493
REMARK  209  A    between atoms: _493  and  _494
REMARK  210  A    between atoms: _493  and  _496
REMARK  211  A    between atoms: _496  and  _497
REMARK  212  A    between atoms: _503  and  _505
REMARK  213  A    between atoms: _505  and  _506
REMARK  214  A    between atoms: _505  and  _508
REMARK  215  A    between atoms: _508  and  _509
REMARK  216  A    between atoms: _512  and  _514
REMARK  217  A    between atoms: _514  and  _515
REMARK  218  A    between atoms: _514  and  _517
REMARK  219  A    between atoms: _519  and  _521
REMARK  220  A    between atoms: _521  and  _522
REMARK  221  A    between atoms: _521  and  _524
REMARK  222  A    between atoms: _524  and  _525
REMARK  223  A    between atoms: _531  and  _533
REMARK  224  A    between atoms: _533  and  _534
REMARK  225  A    between atoms: _533  and  _536
REMARK  226  A    between atoms: _536  and  _537
REMARK  227  A    between atoms: _537  and  _538
REMARK  228  A    between atoms: _541  and  _543
REMARK  229  A    between atoms: _543  and  _544
REMARK  230  A    between atoms: _543  and  _546
REMARK  231  A    between atoms: _546  and  _547
REMARK  232  A    between atoms: _550  and  _552
REMARK  233  A    between atoms: _552  and  _553
REMARK  234  A    between atoms: _552  and  _555
REMARK  235  A    between atoms: _555  and  _556
REMARK  236  A    between atoms: _556  and  _557
REMARK  237  A    between atoms: _557  and  _558
REMARK  238  A    between atoms: _567  and  _569
REMARK  239  A    between atoms: _569  and  _570
REMARK  240  A    between atoms: _569  and  _572
REMARK  241  A    between atoms: _572  and  _573
REMARK  242  A    between atoms: _576  and  _578
REMARK  243  A    between atoms: _578  and  _579
REMARK  244  A    between atoms: _578  and  _581
REMARK  245  A    between atoms: _581  and  _582
REMARK  246  A    between atoms: _588  and  _590
REMARK  247  A    between atoms: _590  and  _591
REMARK  248  A    between atoms: _590  and  _593
REMARK  249  A    between atoms: _596  and  _598
REMARK  250  A    between atoms: _598  and  _599
REMARK  251  A    between atoms: _603  and  _604
REMARK  252  A    between atoms: _609  and  _611
REMARK  253  A    between atoms: _611  and  _612
REMARK  254  A    between atoms: _611  and  _614
REMARK  255  A    between atoms: _614  and  _615
REMARK  256  A    between atoms: _618  and  _620
REMARK  257  A    between atoms: _620  and  _621
REMARK  258  A    between atoms: _620  and  _623
REMARK  259  A    between atoms: _623  and  _624
REMARK  260  A    between atoms: _631  and  _632
REMARK  261  A    between atoms: _637  and  _639
REMARK  262  A    between atoms: _639  and  _640
REMARK  263  A    between atoms: _639  and  _642
REMARK  264  A    between atoms: _645  and  _647
REMARK  265  A    between atoms: _647  and  _648
REMARK  266  A    between atoms: _651  and  _653
REMARK  267  A    between atoms: _653  and  _654
REMARK  268  A    between atoms: _653  and  _656
REMARK  269  A    between atoms: _656  and  _657
REMARK  270  A    between atoms: _662  and  _663
REMARK  271  A    between atoms: _665  and  _667
REMARK  272  A    between atoms: _667  and  _668
REMARK  273  A    between atoms: _667  and  _670
REMARK  274  A    between atoms: _670  and  _671
REMARK  275  A    between atoms: _676  and  _678
REMARK  276  A    between atoms: _678  and  _679
REMARK  277  A    between atoms: _678  and  _681
REMARK  278  A    between atoms: _681  and  _682
REMARK  279  A    between atoms: _685  and  _687
REMARK  280  A    between atoms: _687  and  _688
REMARK  281  A    between atoms: _687  and  _690
REMARK  282  A    between atoms: _690  and  _691
REMARK  283  A    between atoms: _694  and  _696
REMARK  284  A    between atoms: _696  and  _697
REMARK  285  A    between atoms: _696  and  _699
REMARK  286  A    between atoms: _699  and  _700
REMARK  287  A    between atoms: _700  and  _701
REMARK  288  A    between atoms: _701  and  _702
REMARK  289  A    between atoms: _702  and  _703
REMARK  290  A    between atoms: _707  and  _709
REMARK  291  A    between atoms: _709  and  _710
REMARK  292  A    between atoms: _709  and  _712
REMARK  293  A    between atoms: _712  and  _713
REMARK  294  A    between atoms: _719  and  _721
REMARK  295  A    between atoms: _721  and  _722
REMARK  296  A    between atoms: _721  and  _724
REMARK  297  A    between atoms: _724  and  _725
REMARK  298  A    between atoms: _728  and  _730
REMARK  299  A    between atoms: _730  and  _731
REMARK  300  A    between atoms: _730  and  _733
REMARK  301  A    between atoms: _733  and  _734
REMARK  302  A    between atoms: _736  and  _738
REMARK  303  A    between atoms: _738  and  _739
REMARK  304  A    between atoms: _738  and  _741
REMARK  305  A    between atoms: _741  and  _742
REMARK  306  A    between atoms: _745  and  _747
REMARK  307  A    between atoms: _747  and  _748
REMARK  308  A    between atoms: _747  and  _750
REMARK  309  A    between atoms: _750  and  _751
REMARK  310  A    between atoms: _751  and  _752
REMARK  311  A    between atoms: _752  and  _753
REMARK  312  A    between atoms: _762  and  _764
REMARK  313  A    between atoms: _764  and  _765
REMARK  314  A    between atoms: _764  and  _767
REMARK  315  A    between atoms: _767  and  _768
REMARK  316  A    between atoms: _771  and  _773
REMARK  317  A    between atoms: _773  and  _774
REMARK  318  A    between atoms: _773  and  _776
REMARK  319  A    between atoms: _776  and  _777
REMARK  320  A    between atoms: _777  and  _778
REMARK  321  A    between atoms: _780  and  _782
REMARK  322  A    between atoms: _782  and  _783
REMARK  323  A    between atoms: _782  and  _785
REMARK  324  A    between atoms: _788  and  _790
REMARK  325  A    between atoms: _790  and  _791
REMARK  326  A    between atoms: _790  and  _793
REMARK  327  A    between atoms: _793  and  _794
REMARK                            x       y       z     vdW  Elec       q    Type
REMARK                         _______ _______ _______ _____ _____    ______ ____
ROOT
ATOM      1  O   HOH     1      81.393  -4.633  11.539  0.00  0.00    +0.000 OA
ENDROOT
TORSDOF 0
REMARK  Name = ../refined-set-2016/4omj/4omj_pocket.pdb
REMARK  327 active torsions:
REMARK  status: ('A' for Active; 'I' for Inactive)
REMARK    1  A    between atoms: _1  and  _3
REMARK    2  A    between atoms: _3  and  _4
REMARK    3  A    between atoms: _3  and  _6
REMARK    4  A    between atoms: _6  and  _7
REMARK    5  A    between atoms: _10  and  _12
REMARK    6  A    between atoms: _12  and  _13
REMARK    7  A    between atoms: _12  and  _15
REMARK    8  A    between atoms: _15  and  _16
REMARK    9  A    between atoms: _21  and  _22
REMARK   10  A    between atoms: _24  and  _26
REMARK   11  A    between atoms: _26  and  _27
REMARK   12  A    between atoms: _26  and  _29
REMARK   13  A    between atoms: _29  and  _30
REMARK   14  A    between atoms: _33  and  _35
REMARK   15  A    between atoms: _35  and  _36
REMARK   16  A    between atoms: _35  and  _38
REMARK   17  A    between atoms: _38  and  _39
REMARK   18  A    between atoms: _41  and  _43
REMARK   19  A    between atoms: _43  and  _44
REMARK   20  A    between atoms: _43  and  _46
REMARK   21  A    between atoms: _46  and  _47
REMARK   22  A    between atoms: _57  and  _59
REMARK   23  A    between atoms: _59  and  _60
REMARK   24  A    between atoms: _59  and  _62
REMARK   25  A    between atoms: _62  and  _63
REMARK   26  A    between atoms: _66  and  _68
REMARK   27  A    between atoms: _68  and  _69
REMARK   28  A    between atoms: _68  and  _71
REMARK   29  A    between atoms: _71  and  _72
REMARK   30  A    between atoms: _75  and  _77
REMARK   31  A    between atoms: _77  and  _78
REMARK   32  A    between atoms: _77  and  _80
REMARK   33  A    between atoms: _80  and  _81
REMARK   34  A    between atoms: _84  and  _86
REMARK   35  A    between atoms: _86  and  _87
REMARK   36  A    between atoms: _89  and  _91
REMARK   37  A    between atoms: _91  and  _92
REMARK   38  A    between atoms: _91  and  _94
REMARK   39  A    between atoms: _94  and  _95
REMARK   40  A    between atoms: _98  and  _100
REMARK   41  A    between atoms: _100  and  _101
REMARK   42  A    between atoms: _100  and  _103
REMARK   43  A    between atoms: _103  and  _104
REMARK   44  A    between atoms: _107  and  _109
REMARK   45  A    between atoms: _109  and  _110
REMARK   46  A    between atoms: _113  and  _115
REMARK   47  A    between atoms: _115  and  _116
REMARK   48  A    between atoms: _115  and  _118
REMARK   49  A    between atoms: _118  and  _119
REMARK   50  A    between atoms: _119  and  _120
REMARK   51  A    between atoms: _120  and  _121
REMARK   52  A    between atoms: _121  and  _122
REMARK   53  A    between atoms: _126  and  _128
REMARK   54  A    between atoms: _128  and  _129
REMARK   55  A    between atoms: _131  and  _133
REMARK   56  A    between atoms: _133  and  _134
REMARK   57  A    between atoms: _133  and  _136
REMARK   58  A    between atoms: _136  and  _137
REMARK   59  A    between atoms: _140  and  _142
REMARK   60  A    between atoms: _142  and  _143
REMARK   61  A    between atoms: _142  and  _145
REMARK   62  A    between atoms: _145  and  _146
REMARK   63  A    between atoms: _149  and  _151
REMARK   64  A    between atoms: _151  and  _152
REMARK   65  A    between atoms: _151  and  _154
REMARK   66  A    between atoms: _154  and  _155
REMARK   67  A    between atoms: _161  and  _163
REMARK   68  A    between atoms: _163  and  _164
REMARK   69  A    between atoms: _167  and  _169
REMARK   70  A    between atoms: _169  and  _170
REMARK   71  A    between atoms: _169  and  _172
REMARK   72  A    between atoms: _172  and  _173
REMARK   73  A    between atoms: _175  and  _177
REMARK   74  A    between atoms: _177  and  _178
REMARK   75  A    between atoms: _177  and  _180
REMARK   76  A    between atoms: _180  and  _181
REMARK   77  A    between atoms: _181  and  _182
REMARK   78  A    between atoms: _182  and  _183
REMARK   79  A    between atoms: _183  and  _184
REMARK   80  A    between atoms: _188  and  _190
REMARK   81  A    between atoms: _190  and  _191
REMARK   82  A    between atoms: _190  and  _193
REMARK   83  A    between atoms: _193  and  _194
REMARK   84  A    between atoms: _194  and  _195
REMARK   85  A    between atoms: _200  and  _202
REMARK   86  A    between atoms: _202  and  _203
REMARK   87  A    between atoms: _202  and  _205
REMARK   88  A    between atoms: _205  and  _206
REMARK   89  A    between atoms: _209  and  _211
REMARK   90  A    between atoms: _211  and  _212
REMARK   91  A    between atoms: _211  and  _214
REMARK   92  A    between atoms: _214  and  _215
REMARK   93  A    between atoms: _218  and  _220
REMARK   94  A    between atoms: _220  and  _221
REMARK   95  A    between atoms: _220  and  _223
REMARK   96  A    between atoms: _223  and  _224
REMARK   97  A    between atoms: _227  and  _229
REMARK   98  A    between atoms: _229  and  _230
REMARK   99  A    between atoms: _229  and  _232
REMARK  100  A    between atoms: _232  and  _233
REMARK  101  A    between atoms: _233  and  _234
REMARK  102  A    between atoms: _234  and  _235
REMARK  103  A    between atoms: _244  and  _246
REMARK  104  A    between atoms: _246  and  _247
REMARK  105  A    between atoms: _246  and  _249
REMARK  106  A    between atoms: _249  and  _250
REMARK  107  A    between atoms: _253  and  _255
REMARK  108  A    between atoms: _255  and  _256
REMARK  109  A    between atoms: _255  and  _258
REMARK  110  A    between atoms: _258  and  _259
REMARK  111  A    between atoms: _259  and  _260
REMARK  112  A    between atoms: _260  and  _261
REMARK  113  A    between atoms: _261  and  _262
REMARK  114  A    between atoms: _266  and  _268
REMARK  115  A    between atoms: _268  and  _269
REMARK  116  A    between atoms: _268  and  _271
REMARK  117  A    between atoms: _271  and  _272
REMARK  118  A    between atoms: _272  and  _273
REMARK  119  A    between atoms: _275  and  _277
REMARK  120  A    between atoms: _277  and  _278
REMARK  121  A    between atoms: _277  and  _280
REMARK  122  A    between atoms: _280  and  _281
REMARK  123  A    between atoms: _281  and  _282
REMARK  124  A    between atoms: _285  and  _287
REMARK  125  A    between atoms: _287  and  _288
REMARK  126  A    between atoms: _287  and  _290
REMARK  127  A    between atoms: _292  and  _294
REMARK  128  A    between atoms: _294  and  _295
REMARK  129  A    between atoms: _294  and  _297
REMARK  130  A    between atoms: _297  and  _298
REMARK  131  A    between atoms: _301  and  _303
REMARK  132  A    between atoms: _303  and  _304
REMARK  133  A    between atoms: _303  and  _306
REMARK  134  A    between atoms: _306  and  _307
REMARK  135  A    between atoms: _310  and  _312
REMARK  136  A    between atoms: _312  and  _313
REMARK  137  A    between atoms: _312  and  _315
REMARK  138  A    between atoms: _315  and  _316
REMARK  139  A    between atoms: _319  and  _321
REMARK  140  A    between atoms: _321  and  _322
REMARK  141  A    between atoms: _321  and  _324
REMARK  142  A    between atoms: _324  and  _325
REMARK  143  A    between atoms: _330  and  _331
REMARK  144  A    between atoms: _333  and  _335
REMARK  145  A    between atoms: _335  and  _336
REMARK  146  A    between atoms: _335  and  _338
REMARK  147  A    between atoms: _338  and  _339
REMARK  148  A    between atoms: _342  and  _344
REMARK  149  A    between atoms: _344  and  _345
REMARK  150  A    between atoms: _344  and  _347
REMARK  151  A    between atoms: _349  and  _351
REMARK  152  A    between atoms: _351  and  _352
REMARK  153  A    between atoms: _351  and  _354
REMARK  154  A    between atoms: _354  and  _355
REMARK  155  A    between atoms: _358  and  _360
REMARK  156  A    between atoms: _360  and  _361
REMARK  157  A    between atoms: _363  and  _365
REMARK  158  A    between atoms: _365  and  _366
REMARK  159  A    between atoms: _365  and  _368
REMARK  160  A    between atoms: _368  and  _369
REMARK  161  A    between atoms: _369  and  _370
REMARK  162  A    between atoms: _370  and  _371
REMARK  163  A    between atoms: _371  and  _372
REMARK  164  A    between atoms: _376  and  _378
REMARK  165  A    between atoms: _378  and  _379
REMARK  166  A    between atoms: _378  and  _381
REMARK  167  A    between atoms: _381  and  _382
REMARK  168  A    between atoms: _387  and  _389
REMARK  169  A    between atoms: _389  and  _390
REMARK  170  A    between atoms: _389  and  _392
REMARK  171  A    between atoms: _392  and  _393
REMARK  172  A    between atoms: _396  and  _398
REMARK  173  A    between atoms: _398  and  _399
REMARK  174  A    between atoms: _398  and  _401
REMARK  175  A    between atoms: _401  and  _402
REMARK  176  A    between atoms: _412  and  _414
REMARK  177  A    between atoms: _414  and  _415
REMARK  178  A    between atoms: _414  and  _417
REMARK  179  A    between atoms: _417  and  _418
REMARK  180  A    between atoms: _418  and  _419
REMARK  181  A    between atoms: _419  and  _420
REMARK  182  A    between atoms: _420  and  _421
REMARK  183  A    between atoms: _426  and  _427
REMARK  184  A    between atoms: _432  and  _434
REMARK  185  A    between atoms: _434  and  _435
REMARK  186  A    between atoms: _438  and  _440
REMARK  187  A    between atoms: _440  and  _441
REMARK  188  A    between atoms: _440  and  _443
REMARK  189  A    between atoms: _446  and  _448
REMARK  190  A    between atoms: _448  and  _449
REMARK  191  A    between atoms: _448  and  _451
REMARK  192  A    between atoms: _451  and  _452
REMARK  193  A    between atoms: _452  and  _453
REMARK  194  A    between atoms: _456  and  _458
REMARK  195  A    between atoms: _458  and  _459
REMARK  196  A    between atoms: _462  and  _464
REMARK  197  A    between atoms: _464  and  _465
REMARK  198  A    between atoms: _464  and  _467
REMARK  199  A    between atoms: _467  and  _468
REMARK  200  A    between atoms: _473  and  _474
REMARK  201  A    between atoms: _476  and  _478
REMARK  202  A    between atoms: _478  and  _479
REMARK  203  A    between atoms: _481  and  _483
REMARK  204  A    between atoms: _483  and  _484
REMARK  205  A    between atoms: _483  and  _486
REMARK  206  A    between atoms: _486  and  _487
REMARK  207  A    between atoms: _487  and  _488
REMARK  208  A    between atoms: _491  and  _493
REMARK  209  A    between atoms: _493  and  _494
REMARK  210  A    between atoms: _493  and  _496
REMARK  211  A    between atoms: _496  and  _497
REMARK  212  A    between atoms: _503  and  _505
REMARK  213  A    between atoms: _505  and  _506
REMARK  214  A    between atoms: _505  and  _508
REMARK  215  A    between atoms: _508  and  _509
REMARK  216  A    between atoms: _512  and  _514
REMARK  217  A    between atoms: _514  and  _515
REMARK  218  A    between atoms: _514  and  _517
REMARK  219  A    between atoms: _519  and  _521
REMARK  220  A    between atoms: _521  and  _522
REMARK  221  A    between atoms: _521  and  _524
REMARK  222  A    between atoms: _524  and  _525
REMARK  223  A    between atoms: _531  and  _533
REMARK  224  A    between atoms: _533  and  _534
REMARK  225  A    between atoms: _533  and  _536
REMARK  226  A    between atoms: _536  and  _537
REMARK  227  A    between atoms: _537  and  _538
REMARK  228  A    between atoms: _541  and  _543
REMARK  229  A    between atoms: _543  and  _544
REMARK  230  A    between atoms: _543  and  _546
REMARK  231  A    between atoms: _546  and  _547
REMARK  232  A    between atoms: _550  and  _552
REMARK  233  A    between atoms: _552  and  _553
REMARK  234  A    between atoms: _552  and  _555
REMARK  235  A    between atoms: _555  and  _556
REMARK  236  A    between atoms: _556  and  _557
REMARK  237  A    between atoms: _557  and  _558
REMARK  238  A    between atoms: _567  and  _569
REMARK  239  A    between atoms: _569  and  _570
REMARK  240  A    between atoms: _569  and  _572
REMARK  241  A    between atoms: _572  and  _573
REMARK  242  A    between atoms: _576  and  _578
REMARK  243  A    between atoms: _578  and  _579
REMARK  244  A    between atoms: _578  and  _581
REMARK  245  A    between atoms: _581  and  _582
REMARK  246  A    between atoms: _588  and  _590
REMARK  247  A    between atoms: _590  and  _591
REMARK  248  A    between atoms: _590  and  _593
REMARK  249  A    between atoms: _596  and  _598
REMARK  250  A    between atoms: _598  and  _599
REMARK  251  A    between atoms: _603  and  _604
REMARK  252  A    between atoms: _609  and  _611
REMARK  253  A    between atoms: _611  and  _612
REMARK  254  A    between atoms: _611  and  _614
REMARK  255  A    between atoms: _614  and  _615
REMARK  256  A    between atoms: _618  and  _620
REMARK  257  A    between atoms: _620  and  _621
REMARK  258  A    between atoms: _620  and  _623
REMARK  259  A    between atoms: _623  and  _624
REMARK  260  A    between atoms: _631  and  _632
REMARK  261  A    between atoms: _637  and  _639
REMARK  262  A    between atoms: _639  and  _640
REMARK  263  A    between atoms: _639  and  _642
REMARK  264  A    between atoms: _645  and  _647
REMARK  265  A    between atoms: _647  and  _648
REMARK  266  A    between atoms: _651  and  _653
REMARK  267  A    between atoms: _653  and  _654
REMARK  268  A    between atoms: _653  and  _656
REMARK  269  A    between atoms: _656  and  _657
REMARK  270  A    between atoms: _662  and  _663
REMARK  271  A    between atoms: _665  and  _667
REMARK  272  A    between atoms: _667  and  _668
REMARK  273  A    between atoms: _667  and  _670
REMARK  274  A    between atoms: _670  and  _671
REMARK  275  A    between atoms: _676  and  _678
REMARK  276  A    between atoms: _678  and  _679
REMARK  277  A    between atoms: _678  and  _681
REMARK  278  A    between atoms: _681  and  _682
REMARK  279  A    between atoms: _685  and  _687
REMARK  280  A    between atoms: _687  and  _688
REMARK  281  A    between atoms: _687  and  _690
REMARK  282  A    between atoms: _690  and  _691
REMARK  283  A    between atoms: _694  and  _696
REMARK  284  A    between atoms: _696  and  _697
REMARK  285  A    between atoms: _696  and  _699
REMARK  286  A    between atoms: _699  and  _700
REMARK  287  A    between atoms: _700  and  _701
REMARK  288  A    between atoms: _701  and  _702
REMARK  289  A    between atoms: _702  and  _703
REMARK  290  A    between atoms: _707  and  _709
REMARK  291  A    between atoms: _709  and  _710
REMARK  292  A    between atoms: _709  and  _712
REMARK  293  A    between atoms: _712  and  _713
REMARK  294  A    between atoms: _719  and  _721
REMARK  295  A    between atoms: _721  and  _722
REMARK  296  A    between atoms: _721  and  _724
REMARK  297  A    between atoms: _724  and  _725
REMARK  298  A    between atoms: _728  and  _730
REMARK  299  A    between atoms: _730  and  _731
REMARK  300  A    between atoms: _730  and  _733
REMARK  301  A    between atoms: _733  and  _734
REMARK  302  A    between atoms: _736  and  _738
REMARK  303  A    between atoms: _738  and  _739
REMARK  304  A    between atoms: _738  and  _741
REMARK  305  A    between atoms: _741  and  _742
REMARK  306  A    between atoms: _745  and  _747
REMARK  307  A    between atoms: _747  and  _748
REMARK  308  A    between atoms: _747  and  _750
REMARK  309  A    between atoms: _750  and  _751
REMARK  310  A    between atoms: _751  and  _752
REMARK  311  A    between atoms: _752  and  _753
REMARK  312  A    between atoms: _762  and  _764
REMARK  313  A    between atoms: _764  and  _765
REMARK  314  A    between atoms: _764  and  _767
REMARK  315  A    between atoms: _767  and  _768
REMARK  316  A    between atoms: _771  and  _773
REMARK  317  A    between atoms: _773  and  _774
REMARK  318  A    between atoms: _773  and  _776
REMARK  319  A    between atoms: _776  and  _777
REMARK  320  A    between atoms: _777  and  _778
REMARK  321  A    between atoms: _780  and  _782
REMARK  322  A    between atoms: _782  and  _783
REMARK  323  A    between atoms: _782  and  _785
REMARK  324  A    between atoms: _788  and  _790
REMARK  325  A    between atoms: _790  and  _791
REMARK  326  A    between atoms: _790  and  _793
REMARK  327  A    between atoms: _793  and  _794
REMARK                            x       y       z     vdW  Elec       q    Type
REMARK                         _______ _______ _______ _____ _____    ______ ____
ROOT
ATOM      1  O   HOH     1      85.345   6.787  -1.018  0.00  0.00    +0.000 OA
ENDROOT
TORSDOF 0
REMARK  Name = ../refined-set-2016/4omj/4omj_pocket.pdb
REMARK  327 active torsions:
REMARK  status: ('A' for Active; 'I' for Inactive)
REMARK    1  A    between atoms: _1  and  _3
REMARK    2  A    between atoms: _3  and  _4
REMARK    3  A    between atoms: _3  and  _6
REMARK    4  A    between atoms: _6  and  _7
REMARK    5  A    between atoms: _10  and  _12
REMARK    6  A    between atoms: _12  and  _13
REMARK    7  A    between atoms: _12  and  _15
REMARK    8  A    between atoms: _15  and  _16
REMARK    9  A    between atoms: _21  and  _22
REMARK   10  A    between atoms: _24  and  _26
REMARK   11  A    between atoms: _26  and  _27
REMARK   12  A    between atoms: _26  and  _29
REMARK   13  A    between atoms: _29  and  _30
REMARK   14  A    between atoms: _33  and  _35
REMARK   15  A    between atoms: _35  and  _36
REMARK   16  A    between atoms: _35  and  _38
REMARK   17  A    between atoms: _38  and  _39
REMARK   18  A    between atoms: _41  and  _43
REMARK   19  A    between atoms: _43  and  _44
REMARK   20  A    between atoms: _43  and  _46
REMARK   21  A    between atoms: _46  and  _47
REMARK   22  A    between atoms: _57  and  _59
REMARK   23  A    between atoms: _59  and  _60
REMARK   24  A    between atoms: _59  and  _62
REMARK   25  A    between atoms: _62  and  _63
REMARK   26  A    between atoms: _66  and  _68
REMARK   27  A    between atoms: _68  and  _69
REMARK   28  A    between atoms: _68  and  _71
REMARK   29  A    between atoms: _71  and  _72
REMARK   30  A    between atoms: _75  and  _77
REMARK   31  A    between atoms: _77  and  _78
REMARK   32  A    between atoms: _77  and  _80
REMARK   33  A    between atoms: _80  and  _81
REMARK   34  A    between atoms: _84  and  _86
REMARK   35  A    between atoms: _86  and  _87
REMARK   36  A    between atoms: _89  and  _91
REMARK   37  A    between atoms: _91  and  _92
REMARK   38  A    between atoms: _91  and  _94
REMARK   39  A    between atoms: _94  and  _95
REMARK   40  A    between atoms: _98  and  _100
REMARK   41  A    between atoms: _100  and  _101
REMARK   42  A    between atoms: _100  and  _103
REMARK   43  A    between atoms: _103  and  _104
REMARK   44  A    between atoms: _107  and  _109
REMARK   45  A    between atoms: _109  and  _110
REMARK   46  A    between atoms: _113  and  _115
REMARK   47  A    between atoms: _115  and  _116
REMARK   48  A    between atoms: _115  and  _118
REMARK   49  A    between atoms: _118  and  _119
REMARK   50  A    between atoms: _119  and  _120
REMARK   51  A    between atoms: _120  and  _121
REMARK   52  A    between atoms: _121  and  _122
REMARK   53  A    between atoms: _126  and  _128
REMARK   54  A    between atoms: _128  and  _129
REMARK   55  A    between atoms: _131  and  _133
REMARK   56  A    between atoms: _133  and  _134
REMARK   57  A    between atoms: _133  and  _136
REMARK   58  A    between atoms: _136  and  _137
REMARK   59  A    between atoms: _140  and  _142
REMARK   60  A    between atoms: _142  and  _143
REMARK   61  A    between atoms: _142  and  _145
REMARK   62  A    between atoms: _145  and  _146
REMARK   63  A    between atoms: _149  and  _151
REMARK   64  A    between atoms: _151  and  _152
REMARK   65  A    between atoms: _151  and  _154
REMARK   66  A    between atoms: _154  and  _155
REMARK   67  A    between atoms: _161  and  _163
REMARK   68  A    between atoms: _163  and  _164
REMARK   69  A    between atoms: _167  and  _169
REMARK   70  A    between atoms: _169  and  _170
REMARK   71  A    between atoms: _169  and  _172
REMARK   72  A    between atoms: _172  and  _173
REMARK   73  A    between atoms: _175  and  _177
REMARK   74  A    between atoms: _177  and  _178
REMARK   75  A    between atoms: _177  and  _180
REMARK   76  A    between atoms: _180  and  _181
REMARK   77  A    between atoms: _181  and  _182
REMARK   78  A    between atoms: _182  and  _183
REMARK   79  A    between atoms: _183  and  _184
REMARK   80  A    between atoms: _188  and  _190
REMARK   81  A    between atoms: _190  and  _191
REMARK   82  A    between atoms: _190  and  _193
REMARK   83  A    between atoms: _193  and  _194
REMARK   84  A    between atoms: _194  and  _195
REMARK   85  A    between atoms: _200  and  _202
REMARK   86  A    between atoms: _202  and  _203
REMARK   87  A    between atoms: _202  and  _205
REMARK   88  A    between atoms: _205  and  _206
REMARK   89  A    between atoms: _209  and  _211
REMARK   90  A    between atoms: _211  and  _212
REMARK   91  A    between atoms: _211  and  _214
REMARK   92  A    between atoms: _214  and  _215
REMARK   93  A    between atoms: _218  and  _220
REMARK   94  A    between atoms: _220  and  _221
REMARK   95  A    between atoms: _220  and  _223
REMARK   96  A    between atoms: _223  and  _224
REMARK   97  A    between atoms: _227  and  _229
REMARK   98  A    between atoms: _229  and  _230
REMARK   99  A    between atoms: _229  and  _232
REMARK  100  A    between atoms: _232  and  _233
REMARK  101  A    between atoms: _233  and  _234
REMARK  102  A    between atoms: _234  and  _235
REMARK  103  A    between atoms: _244  and  _246
REMARK  104  A    between atoms: _246  and  _247
REMARK  105  A    between atoms: _246  and  _249
REMARK  106  A    between atoms: _249  and  _250
REMARK  107  A    between atoms: _253  and  _255
REMARK  108  A    between atoms: _255  and  _256
REMARK  109  A    between atoms: _255  and  _258
REMARK  110  A    between atoms: _258  and  _259
REMARK  111  A    between atoms: _259  and  _260
REMARK  112  A    between atoms: _260  and  _261
REMARK  113  A    between atoms: _261  and  _262
REMARK  114  A    between atoms: _266  and  _268
REMARK  115  A    between atoms: _268  and  _269
REMARK  116  A    between atoms: _268  and  _271
REMARK  117  A    between atoms: _271  and  _272
REMARK  118  A    between atoms: _272  and  _273
REMARK  119  A    between atoms: _275  and  _277
REMARK  120  A    between atoms: _277  and  _278
REMARK  121  A    between atoms: _277  and  _280
REMARK  122  A    between atoms: _280  and  _281
REMARK  123  A    between atoms: _281  and  _282
REMARK  124  A    between atoms: _285  and  _287
REMARK  125  A    between atoms: _287  and  _288
REMARK  126  A    between atoms: _287  and  _290
REMARK  127  A    between atoms: _292  and  _294
REMARK  128  A    between atoms: _294  and  _295
REMARK  129  A    between atoms: _294  and  _297
REMARK  130  A    between atoms: _297  and  _298
REMARK  131  A    between atoms: _301  and  _303
REMARK  132  A    between atoms: _303  and  _304
REMARK  133  A    between atoms: _303  and  _306
REMARK  134  A    between atoms: _306  and  _307
REMARK  135  A    between atoms: _310  and  _312
REMARK  136  A    between atoms: _312  and  _313
REMARK  137  A    between atoms: _312  and  _315
REMARK  138  A    between atoms: _315  and  _316
REMARK  139  A    between atoms: _319  and  _321
REMARK  140  A    between atoms: _321  and  _322
REMARK  141  A    between atoms: _321  and  _324
REMARK  142  A    between atoms: _324  and  _325
REMARK  143  A    between atoms: _330  and  _331
REMARK  144  A    between atoms: _333  and  _335
REMARK  145  A    between atoms: _335  and  _336
REMARK  146  A    between atoms: _335  and  _338
REMARK  147  A    between atoms: _338  and  _339
REMARK  148  A    between atoms: _342  and  _344
REMARK  149  A    between atoms: _344  and  _345
REMARK  150  A    between atoms: _344  and  _347
REMARK  151  A    between atoms: _349  and  _351
REMARK  152  A    between atoms: _351  and  _352
REMARK  153  A    between atoms: _351  and  _354
REMARK  154  A    between atoms: _354  and  _355
REMARK  155  A    between atoms: _358  and  _360
REMARK  156  A    between atoms: _360  and  _361
REMARK  157  A    between atoms: _363  and  _365
REMARK  158  A    between atoms: _365  and  _366
REMARK  159  A    between atoms: _365  and  _368
REMARK  160  A    between atoms: _368  and  _369
REMARK  161  A    between atoms: _369  and  _370
REMARK  162  A    between atoms: _370  and  _371
REMARK  163  A    between atoms: _371  and  _372
REMARK  164  A    between atoms: _376  and  _378
REMARK  165  A    between atoms: _378  and  _379
REMARK  166  A    between atoms: _378  and  _381
REMARK  167  A    between atoms: _381  and  _382
REMARK  168  A    between atoms: _387  and  _389
REMARK  169  A    between atoms: _389  and  _390
REMARK  170  A    between atoms: _389  and  _392
REMARK  171  A    between atoms: _392  and  _393
REMARK  172  A    between atoms: _396  and  _398
REMARK  173  A    between atoms: _398  and  _399
REMARK  174  A    between atoms: _398  and  _401
REMARK  175  A    between atoms: _401  and  _402
REMARK  176  A    between atoms: _412  and  _414
REMARK  177  A    between atoms: _414  and  _415
REMARK  178  A    between atoms: _414  and  _417
REMARK  179  A    between atoms: _417  and  _418
REMARK  180  A    between atoms: _418  and  _419
REMARK  181  A    between atoms: _419  and  _420
REMARK  182  A    between atoms: _420  and  _421
REMARK  183  A    between atoms: _426  and  _427
REMARK  184  A    between atoms: _432  and  _434
REMARK  185  A    between atoms: _434  and  _435
REMARK  186  A    between atoms: _438  and  _440
REMARK  187  A    between atoms: _440  and  _441
REMARK  188  A    between atoms: _440  and  _443
REMARK  189  A    between atoms: _446  and  _448
REMARK  190  A    between atoms: _448  and  _449
REMARK  191  A    between atoms: _448  and  _451
REMARK  192  A    between atoms: _451  and  _452
REMARK  193  A    between atoms: _452  and  _453
REMARK  194  A    between atoms: _456  and  _458
REMARK  195  A    between atoms: _458  and  _459
REMARK  196  A    between atoms: _462  and  _464
REMARK  197  A    between atoms: _464  and  _465
REMARK  198  A    between atoms: _464  and  _467
REMARK  199  A    between atoms: _467  and  _468
REMARK  200  A    between atoms: _473  and  _474
REMARK  201  A    between atoms: _476  and  _478
REMARK  202  A    between atoms: _478  and  _479
REMARK  203  A    between atoms: _481  and  _483
REMARK  204  A    between atoms: _483  and  _484
REMARK  205  A    between atoms: _483  and  _486
REMARK  206  A    between atoms: _486  and  _487
REMARK  207  A    between atoms: _487  and  _488
REMARK  208  A    between atoms: _491  and  _493
REMARK  209  A    between atoms: _493  and  _494
REMARK  210  A    between atoms: _493  and  _496
REMARK  211  A    between atoms: _496  and  _497
REMARK  212  A    between atoms: _503  and  _505
REMARK  213  A    between atoms: _505  and  _506
REMARK  214  A    between atoms: _505  and  _508
REMARK  215  A    between atoms: _508  and  _509
REMARK  216  A    between atoms: _512  and  _514
REMARK  217  A    between atoms: _514  and  _515
REMARK  218  A    between atoms: _514  and  _517
REMARK  219  A    between atoms: _519  and  _521
REMARK  220  A    between atoms: _521  and  _522
REMARK  221  A    between atoms: _521  and  _524
REMARK  222  A    between atoms: _524  and  _525
REMARK  223  A    between atoms: _531  and  _533
REMARK  224  A    between atoms: _533  and  _534
REMARK  225  A    between atoms: _533  and  _536
REMARK  226  A    between atoms: _536  and  _537
REMARK  227  A    between atoms: _537  and  _538
REMARK  228  A    between atoms: _541  and  _543
REMARK  229  A    between atoms: _543  and  _544
REMARK  230  A    between atoms: _543  and  _546
REMARK  231  A    between atoms: _546  and  _547
REMARK  232  A    between atoms: _550  and  _552
REMARK  233  A    between atoms: _552  and  _553
REMARK  234  A    between atoms: _552  and  _555
REMARK  235  A    between atoms: _555  and  _556
REMARK  236  A    between atoms: _556  and  _557
REMARK  237  A    between atoms: _557  and  _558
REMARK  238  A    between atoms: _567  and  _569
REMARK  239  A    between atoms: _569  and  _570
REMARK  240  A    between atoms: _569  and  _572
REMARK  241  A    between atoms: _572  and  _573
REMARK  242  A    between atoms: _576  and  _578
REMARK  243  A    between atoms: _578  and  _579
REMARK  244  A    between atoms: _578  and  _581
REMARK  245  A    between atoms: _581  and  _582
REMARK  246  A    between atoms: _588  and  _590
REMARK  247  A    between atoms: _590  and  _591
REMARK  248  A    between atoms: _590  and  _593
REMARK  249  A    between atoms: _596  and  _598
REMARK  250  A    between atoms: _598  and  _599
REMARK  251  A    between atoms: _603  and  _604
REMARK  252  A    between atoms: _609  and  _611
REMARK  253  A    between atoms: _611  and  _612
REMARK  254  A    between atoms: _611  and  _614
REMARK  255  A    between atoms: _614  and  _615
REMARK  256  A    between atoms: _618  and  _620
REMARK  257  A    between atoms: _620  and  _621
REMARK  258  A    between atoms: _620  and  _623
REMARK  259  A    between atoms: _623  and  _624
REMARK  260  A    between atoms: _631  and  _632
REMARK  261  A    between atoms: _637  and  _639
REMARK  262  A    between atoms: _639  and  _640
REMARK  263  A    between atoms: _639  and  _642
REMARK  264  A    between atoms: _645  and  _647
REMARK  265  A    between atoms: _647  and  _648
REMARK  266  A    between atoms: _651  and  _653
REMARK  267  A    between atoms: _653  and  _654
REMARK  268  A    between atoms: _653  and  _656
REMARK  269  A    between atoms: _656  and  _657
REMARK  270  A    between atoms: _662  and  _663
REMARK  271  A    between atoms: _665  and  _667
REMARK  272  A    between atoms: _667  and  _668
REMARK  273  A    between atoms: _667  and  _670
REMARK  274  A    between atoms: _670  and  _671
REMARK  275  A    between atoms: _676  and  _678
REMARK  276  A    between atoms: _678  and  _679
REMARK  277  A    between atoms: _678  and  _681
REMARK  278  A    between atoms: _681  and  _682
REMARK  279  A    between atoms: _685  and  _687
REMARK  280  A    between atoms: _687  and  _688
REMARK  281  A    between atoms: _687  and  _690
REMARK  282  A    between atoms: _690  and  _691
REMARK  283  A    between atoms: _694  and  _696
REMARK  284  A    between atoms: _696  and  _697
REMARK  285  A    between atoms: _696  and  _699
REMARK  286  A    between atoms: _699  and  _700
REMARK  287  A    between atoms: _700  and  _701
REMARK  288  A    between atoms: _701  and  _702
REMARK  289  A    between atoms: _702  and  _703
REMARK  290  A    between atoms: _707  and  _709
REMARK  291  A    between atoms: _709  and  _710
REMARK  292  A    between atoms: _709  and  _712
REMARK  293  A    between atoms: _712  and  _713
REMARK  294  A    between atoms: _719  and  _721
REMARK  295  A    between atoms: _721  and  _722
REMARK  296  A    between atoms: _721  and  _724
REMARK  297  A    between atoms: _724  and  _725
REMARK  298  A    between atoms: _728  and  _730
REMARK  299  A    between atoms: _730  and  _731
REMARK  300  A    between atoms: _730  and  _733
REMARK  301  A    between atoms: _733  and  _734
REMARK  302  A    between atoms: _736  and  _738
REMARK  303  A    between atoms: _738  and  _739
REMARK  304  A    between atoms: _738  and  _741
REMARK  305  A    between atoms: _741  and  _742
REMARK  306  A    between atoms: _745  and  _747
REMARK  307  A    between atoms: _747  and  _748
REMARK  308  A    between atoms: _747  and  _750
REMARK  309  A    between atoms: _750  and  _751
REMARK  310  A    between atoms: _751  and  _752
REMARK  311  A    between atoms: _752  and  _753
REMARK  312  A    between atoms: _762  and  _764
REMARK  313  A    between atoms: _764  and  _765
REMARK  314  A    between atoms: _764  and  _767
REMARK  315  A    between atoms: _767  and  _768
REMARK  316  A    between atoms: _771  and  _773
REMARK  317  A    between atoms: _773  and  _774
REMARK  318  A    between atoms: _773  and  _776
REMARK  319  A    between atoms: _776  and  _777
REMARK  320  A    between atoms: _777  and  _778
REMARK  321  A    between atoms: _780  and  _782
REMARK  322  A    between atoms: _782  and  _783
REMARK  323  A    between atoms: _782  and  _785
REMARK  324  A    between atoms: _788  and  _790
REMARK  325  A    between atoms: _790  and  _791
REMARK  326  A    between atoms: _790  and  _793
REMARK  327  A    between atoms: _793  and  _794
REMARK                            x       y       z     vdW  Elec       q    Type
REMARK                         _______ _______ _______ _____ _____    ______ ____
ROOT
ATOM      1  O   HOH     1      82.771  16.423  11.850  0.00  0.00    +0.000 OA
ENDROOT
TORSDOF 0
REMARK  Name = ../refined-set-2016/4omj/4omj_pocket.pdb
REMARK  327 active torsions:
REMARK  status: ('A' for Active; 'I' for Inactive)
REMARK    1  A    between atoms: _1  and  _3
REMARK    2  A    between atoms: _3  and  _4
REMARK    3  A    between atoms: _3  and  _6
REMARK    4  A    between atoms: _6  and  _7
REMARK    5  A    between atoms: _10  and  _12
REMARK    6  A    between atoms: _12  and  _13
REMARK    7  A    between atoms: _12  and  _15
REMARK    8  A    between atoms: _15  and  _16
REMARK    9  A    between atoms: _21  and  _22
REMARK   10  A    between atoms: _24  and  _26
REMARK   11  A    between atoms: _26  and  _27
REMARK   12  A    between atoms: _26  and  _29
REMARK   13  A    between atoms: _29  and  _30
REMARK   14  A    between atoms: _33  and  _35
REMARK   15  A    between atoms: _35  and  _36
REMARK   16  A    between atoms: _35  and  _38
REMARK   17  A    between atoms: _38  and  _39
REMARK   18  A    between atoms: _41  and  _43
REMARK   19  A    between atoms: _43  and  _44
REMARK   20  A    between atoms: _43  and  _46
REMARK   21  A    between atoms: _46  and  _47
REMARK   22  A    between atoms: _57  and  _59
REMARK   23  A    between atoms: _59  and  _60
REMARK   24  A    between atoms: _59  and  _62
REMARK   25  A    between atoms: _62  and  _63
REMARK   26  A    between atoms: _66  and  _68
REMARK   27  A    between atoms: _68  and  _69
REMARK   28  A    between atoms: _68  and  _71
REMARK   29  A    between atoms: _71  and  _72
REMARK   30  A    between atoms: _75  and  _77
REMARK   31  A    between atoms: _77  and  _78
REMARK   32  A    between atoms: _77  and  _80
REMARK   33  A    between atoms: _80  and  _81
REMARK   34  A    between atoms: _84  and  _86
REMARK   35  A    between atoms: _86  and  _87
REMARK   36  A    between atoms: _89  and  _91
REMARK   37  A    between atoms: _91  and  _92
REMARK   38  A    between atoms: _91  and  _94
REMARK   39  A    between atoms: _94  and  _95
REMARK   40  A    between atoms: _98  and  _100
REMARK   41  A    between atoms: _100  and  _101
REMARK   42  A    between atoms: _100  and  _103
REMARK   43  A    between atoms: _103  and  _104
REMARK   44  A    between atoms: _107  and  _109
REMARK   45  A    between atoms: _109  and  _110
REMARK   46  A    between atoms: _113  and  _115
REMARK   47  A    between atoms: _115  and  _116
REMARK   48  A    between atoms: _115  and  _118
REMARK   49  A    between atoms: _118  and  _119
REMARK   50  A    between atoms: _119  and  _120
REMARK   51  A    between atoms: _120  and  _121
REMARK   52  A    between atoms: _121  and  _122
REMARK   53  A    between atoms: _126  and  _128
REMARK   54  A    between atoms: _128  and  _129
REMARK   55  A    between atoms: _131  and  _133
REMARK   56  A    between atoms: _133  and  _134
REMARK   57  A    between atoms: _133  and  _136
REMARK   58  A    between atoms: _136  and  _137
REMARK   59  A    between atoms: _140  and  _142
REMARK   60  A    between atoms: _142  and  _143
REMARK   61  A    between atoms: _142  and  _145
REMARK   62  A    between atoms: _145  and  _146
REMARK   63  A    between atoms: _149  and  _151
REMARK   64  A    between atoms: _151  and  _152
REMARK   65  A    between atoms: _151  and  _154
REMARK   66  A    between atoms: _154  and  _155
REMARK   67  A    between atoms: _161  and  _163
REMARK   68  A    between atoms: _163  and  _164
REMARK   69  A    between atoms: _167  and  _169
REMARK   70  A    between atoms: _169  and  _170
REMARK   71  A    between atoms: _169  and  _172
REMARK   72  A    between atoms: _172  and  _173
REMARK   73  A    between atoms: _175  and  _177
REMARK   74  A    between atoms: _177  and  _178
REMARK   75  A    between atoms: _177  and  _180
REMARK   76  A    between atoms: _180  and  _181
REMARK   77  A    between atoms: _181  and  _182
REMARK   78  A    between atoms: _182  and  _183
REMARK   79  A    between atoms: _183  and  _184
REMARK   80  A    between atoms: _188  and  _190
REMARK   81  A    between atoms: _190  and  _191
REMARK   82  A    between atoms: _190  and  _193
REMARK   83  A    between atoms: _193  and  _194
REMARK   84  A    between atoms: _194  and  _195
REMARK   85  A    between atoms: _200  and  _202
REMARK   86  A    between atoms: _202  and  _203
REMARK   87  A    between atoms: _202  and  _205
REMARK   88  A    between atoms: _205  and  _206
REMARK   89  A    between atoms: _209  and  _211
REMARK   90  A    between atoms: _211  and  _212
REMARK   91  A    between atoms: _211  and  _214
REMARK   92  A    between atoms: _214  and  _215
REMARK   93  A    between atoms: _218  and  _220
REMARK   94  A    between atoms: _220  and  _221
REMARK   95  A    between atoms: _220  and  _223
REMARK   96  A    between atoms: _223  and  _224
REMARK   97  A    between atoms: _227  and  _229
REMARK   98  A    between atoms: _229  and  _230
REMARK   99  A    between atoms: _229  and  _232
REMARK  100  A    between atoms: _232  and  _233
REMARK  101  A    between atoms: _233  and  _234
REMARK  102  A    between atoms: _234  and  _235
REMARK  103  A    between atoms: _244  and  _246
REMARK  104  A    between atoms: _246  and  _247
REMARK  105  A    between atoms: _246  and  _249
REMARK  106  A    between atoms: _249  and  _250
REMARK  107  A    between atoms: _253  and  _255
REMARK  108  A    between atoms: _255  and  _256
REMARK  109  A    between atoms: _255  and  _258
REMARK  110  A    between atoms: _258  and  _259
REMARK  111  A    between atoms: _259  and  _260
REMARK  112  A    between atoms: _260  and  _261
REMARK  113  A    between atoms: _261  and  _262
REMARK  114  A    between atoms: _266  and  _268
REMARK  115  A    between atoms: _268  and  _269
REMARK  116  A    between atoms: _268  and  _271
REMARK  117  A    between atoms: _271  and  _272
REMARK  118  A    between atoms: _272  and  _273
REMARK  119  A    between atoms: _275  and  _277
REMARK  120  A    between atoms: _277  and  _278
REMARK  121  A    between atoms: _277  and  _280
REMARK  122  A    between atoms: _280  and  _281
REMARK  123  A    between atoms: _281  and  _282
REMARK  124  A    between atoms: _285  and  _287
REMARK  125  A    between atoms: _287  and  _288
REMARK  126  A    between atoms: _287  and  _290
REMARK  127  A    between atoms: _292  and  _294
REMARK  128  A    between atoms: _294  and  _295
REMARK  129  A    between atoms: _294  and  _297
REMARK  130  A    between atoms: _297  and  _298
REMARK  131  A    between atoms: _301  and  _303
REMARK  132  A    between atoms: _303  and  _304
REMARK  133  A    between atoms: _303  and  _306
REMARK  134  A    between atoms: _306  and  _307
REMARK  135  A    between atoms: _310  and  _312
REMARK  136  A    between atoms: _312  and  _313
REMARK  137  A    between atoms: _312  and  _315
REMARK  138  A    between atoms: _315  and  _316
REMARK  139  A    between atoms: _319  and  _321
REMARK  140  A    between atoms: _321  and  _322
REMARK  141  A    between atoms: _321  and  _324
REMARK  142  A    between atoms: _324  and  _325
REMARK  143  A    between atoms: _330  and  _331
REMARK  144  A    between atoms: _333  and  _335
REMARK  145  A    between atoms: _335  and  _336
REMARK  146  A    between atoms: _335  and  _338
REMARK  147  A    between atoms: _338  and  _339
REMARK  148  A    between atoms: _342  and  _344
REMARK  149  A    between atoms: _344  and  _345
REMARK  150  A    between atoms: _344  and  _347
REMARK  151  A    between atoms: _349  and  _351
REMARK  152  A    between atoms: _351  and  _352
REMARK  153  A    between atoms: _351  and  _354
REMARK  154  A    between atoms: _354  and  _355
REMARK  155  A    between atoms: _358  and  _360
REMARK  156  A    between atoms: _360  and  _361
REMARK  157  A    between atoms: _363  and  _365
REMARK  158  A    between atoms: _365  and  _366
REMARK  159  A    between atoms: _365  and  _368
REMARK  160  A    between atoms: _368  and  _369
REMARK  161  A    between atoms: _369  and  _370
REMARK  162  A    between atoms: _370  and  _371
REMARK  163  A    between atoms: _371  and  _372
REMARK  164  A    between atoms: _376  and  _378
REMARK  165  A    between atoms: _378  and  _379
REMARK  166  A    between atoms: _378  and  _381
REMARK  167  A    between atoms: _381  and  _382
REMARK  168  A    between atoms: _387  and  _389
REMARK  169  A    between atoms: _389  and  _390
REMARK  170  A    between atoms: _389  and  _392
REMARK  171  A    between atoms: _392  and  _393
REMARK  172  A    between atoms: _396  and  _398
REMARK  173  A    between atoms: _398  and  _399
REMARK  174  A    between atoms: _398  and  _401
REMARK  175  A    between atoms: _401  and  _402
REMARK  176  A    between atoms: _412  and  _414
REMARK  177  A    between atoms: _414  and  _415
REMARK  178  A    between atoms: _414  and  _417
REMARK  179  A    between atoms: _417  and  _418
REMARK  180  A    between atoms: _418  and  _419
REMARK  181  A    between atoms: _419  and  _420
REMARK  182  A    between atoms: _420  and  _421
REMARK  183  A    between atoms: _426  and  _427
REMARK  184  A    between atoms: _432  and  _434
REMARK  185  A    between atoms: _434  and  _435
REMARK  186  A    between atoms: _438  and  _440
REMARK  187  A    between atoms: _440  and  _441
REMARK  188  A    between atoms: _440  and  _443
REMARK  189  A    between atoms: _446  and  _448
REMARK  190  A    between atoms: _448  and  _449
REMARK  191  A    between atoms: _448  and  _451
REMARK  192  A    between atoms: _451  and  _452
REMARK  193  A    between atoms: _452  and  _453
REMARK  194  A    between atoms: _456  and  _458
REMARK  195  A    between atoms: _458  and  _459
REMARK  196  A    between atoms: _462  and  _464
REMARK  197  A    between atoms: _464  and  _465
REMARK  198  A    between atoms: _464  and  _467
REMARK  199  A    between atoms: _467  and  _468
REMARK  200  A    between atoms: _473  and  _474
REMARK  201  A    between atoms: _476  and  _478
REMARK  202  A    between atoms: _478  and  _479
REMARK  203  A    between atoms: _481  and  _483
REMARK  204  A    between atoms: _483  and  _484
REMARK  205  A    between atoms: _483  and  _486
REMARK  206  A    between atoms: _486  and  _487
REMARK  207  A    between atoms: _487  and  _488
REMARK  208  A    between atoms: _491  and  _493
REMARK  209  A    between atoms: _493  and  _494
REMARK  210  A    between atoms: _493  and  _496
REMARK  211  A    between atoms: _496  and  _497
REMARK  212  A    between atoms: _503  and  _505
REMARK  213  A    between atoms: _505  and  _506
REMARK  214  A    between atoms: _505  and  _508
REMARK  215  A    between atoms: _508  and  _509
REMARK  216  A    between atoms: _512  and  _514
REMARK  217  A    between atoms: _514  and  _515
REMARK  218  A    between atoms: _514  and  _517
REMARK  219  A    between atoms: _519  and  _521
REMARK  220  A    between atoms: _521  and  _522
REMARK  221  A    between atoms: _521  and  _524
REMARK  222  A    between atoms: _524  and  _525
REMARK  223  A    between atoms: _531  and  _533
REMARK  224  A    between atoms: _533  and  _534
REMARK  225  A    between atoms: _533  and  _536
REMARK  226  A    between atoms: _536  and  _537
REMARK  227  A    between atoms: _537  and  _538
REMARK  228  A    between atoms: _541  and  _543
REMARK  229  A    between atoms: _543  and  _544
REMARK  230  A    between atoms: _543  and  _546
REMARK  231  A    between atoms: _546  and  _547
REMARK  232  A    between atoms: _550  and  _552
REMARK  233  A    between atoms: _552  and  _553
REMARK  234  A    between atoms: _552  and  _555
REMARK  235  A    between atoms: _555  and  _556
REMARK  236  A    between atoms: _556  and  _557
REMARK  237  A    between atoms: _557  and  _558
REMARK  238  A    between atoms: _567  and  _569
REMARK  239  A    between atoms: _569  and  _570
REMARK  240  A    between atoms: _569  and  _572
REMARK  241  A    between atoms: _572  and  _573
REMARK  242  A    between atoms: _576  and  _578
REMARK  243  A    between atoms: _578  and  _579
REMARK  244  A    between atoms: _578  and  _581
REMARK  245  A    between atoms: _581  and  _582
REMARK  246  A    between atoms: _588  and  _590
REMARK  247  A    between atoms: _590  and  _591
REMARK  248  A    between atoms: _590  and  _593
REMARK  249  A    between atoms: _596  and  _598
REMARK  250  A    between atoms: _598  and  _599
REMARK  251  A    between atoms: _603  and  _604
REMARK  252  A    between atoms: _609  and  _611
REMARK  253  A    between atoms: _611  and  _612
REMARK  254  A    between atoms: _611  and  _614
REMARK  255  A    between atoms: _614  and  _615
REMARK  256  A    between atoms: _618  and  _620
REMARK  257  A    between atoms: _620  and  _621
REMARK  258  A    between atoms: _620  and  _623
REMARK  259  A    between atoms: _623  and  _624
REMARK  260  A    between atoms: _631  and  _632
REMARK  261  A    between atoms: _637  and  _639
REMARK  262  A    between atoms: _639  and  _640
REMARK  263  A    between atoms: _639  and  _642
REMARK  264  A    between atoms: _645  and  _647
REMARK  265  A    between atoms: _647  and  _648
REMARK  266  A    between atoms: _651  and  _653
REMARK  267  A    between atoms: _653  and  _654
REMARK  268  A    between atoms: _653  and  _656
REMARK  269  A    between atoms: _656  and  _657
REMARK  270  A    between atoms: _662  and  _663
REMARK  271  A    between atoms: _665  and  _667
REMARK  272  A    between atoms: _667  and  _668
REMARK  273  A    between atoms: _667  and  _670
REMARK  274  A    between atoms: _670  and  _671
REMARK  275  A    between atoms: _676  and  _678
REMARK  276  A    between atoms: _678  and  _679
REMARK  277  A    between atoms: _678  and  _681
REMARK  278  A    between atoms: _681  and  _682
REMARK  279  A    between atoms: _685  and  _687
REMARK  280  A    between atoms: _687  and  _688
REMARK  281  A    between atoms: _687  and  _690
REMARK  282  A    between atoms: _690  and  _691
REMARK  283  A    between atoms: _694  and  _696
REMARK  284  A    between atoms: _696  and  _697
REMARK  285  A    between atoms: _696  and  _699
REMARK  286  A    between atoms: _699  and  _700
REMARK  287  A    between atoms: _700  and  _701
REMARK  288  A    between atoms: _701  and  _702
REMARK  289  A    between atoms: _702  and  _703
REMARK  290  A    between atoms: _707  and  _709
REMARK  291  A    between atoms: _709  and  _710
REMARK  292  A    between atoms: _709  and  _712
REMARK  293  A    between atoms: _712  and  _713
REMARK  294  A    between atoms: _719  and  _721
REMARK  295  A    between atoms: _721  and  _722
REMARK  296  A    between atoms: _721  and  _724
REMARK  297  A    between atoms: _724  and  _725
REMARK  298  A    between atoms: _728  and  _730
REMARK  299  A    between atoms: _730  and  _731
REMARK  300  A    between atoms: _730  and  _733
REMARK  301  A    between atoms: _733  and  _734
REMARK  302  A    between atoms: _736  and  _738
REMARK  303  A    between atoms: _738  and  _739
REMARK  304  A    between atoms: _738  and  _741
REMARK  305  A    between atoms: _741  and  _742
REMARK  306  A    between atoms: _745  and  _747
REMARK  307  A    between atoms: _747  and  _748
REMARK  308  A    between atoms: _747  and  _750
REMARK  309  A    between atoms: _750  and  _751
REMARK  310  A    between atoms: _751  and  _752
REMARK  311  A    between atoms: _752  and  _753
REMARK  312  A    between atoms: _762  and  _764
REMARK  313  A    between atoms: _764  and  _765
REMARK  314  A    between atoms: _764  and  _767
REMARK  315  A    between atoms: _767  and  _768
REMARK  316  A    between atoms: _771  and  _773
REMARK  317  A    between atoms: _773  and  _774
REMARK  318  A    between atoms: _773  and  _776
REMARK  319  A    between atoms: _776  and  _777
REMARK  320  A    between atoms: _777  and  _778
REMARK  321  A    between atoms: _780  and  _782
REMARK  322  A    between atoms: _782  and  _783
REMARK  323  A    between atoms: _782  and  _785
REMARK  324  A    between atoms: _788  and  _790
REMARK  325  A    between atoms: _790  and  _791
REMARK  326  A    between atoms: _790  and  _793
REMARK  327  A    between atoms: _793  and  _794
REMARK                            x       y       z     vdW  Elec       q    Type
REMARK                         _______ _______ _______ _____ _____    ______ ____
ROOT
ATOM      1  O   HOH     1      86.969   5.019   3.756  0.00  0.00    +0.000 OA
ENDROOT
TORSDOF 0
REMARK  Name = ../refined-set-2016/4omj/4omj_pocket.pdb
REMARK  327 active torsions:
REMARK  status: ('A' for Active; 'I' for Inactive)
REMARK    1  A    between atoms: _1  and  _3
REMARK    2  A    between atoms: _3  and  _4
REMARK    3  A    between atoms: _3  and  _6
REMARK    4  A    between atoms: _6  and  _7
REMARK    5  A    between atoms: _10  and  _12
REMARK    6  A    between atoms: _12  and  _13
REMARK    7  A    between atoms: _12  and  _15
REMARK    8  A    between atoms: _15  and  _16
REMARK    9  A    between atoms: _21  and  _22
REMARK   10  A    between atoms: _24  and  _26
REMARK   11  A    between atoms: _26  and  _27
REMARK   12  A    between atoms: _26  and  _29
REMARK   13  A    between atoms: _29  and  _30
REMARK   14  A    between atoms: _33  and  _35
REMARK   15  A    between atoms: _35  and  _36
REMARK   16  A    between atoms: _35  and  _38
REMARK   17  A    between atoms: _38  and  _39
REMARK   18  A    between atoms: _41  and  _43
REMARK   19  A    between atoms: _43  and  _44
REMARK   20  A    between atoms: _43  and  _46
REMARK   21  A    between atoms: _46  and  _47
REMARK   22  A    between atoms: _57  and  _59
REMARK   23  A    between atoms: _59  and  _60
REMARK   24  A    between atoms: _59  and  _62
REMARK   25  A    between atoms: _62  and  _63
REMARK   26  A    between atoms: _66  and  _68
REMARK   27  A    between atoms: _68  and  _69
REMARK   28  A    between atoms: _68  and  _71
REMARK   29  A    between atoms: _71  and  _72
REMARK   30  A    between atoms: _75  and  _77
REMARK   31  A    between atoms: _77  and  _78
REMARK   32  A    between atoms: _77  and  _80
REMARK   33  A    between atoms: _80  and  _81
REMARK   34  A    between atoms: _84  and  _86
REMARK   35  A    between atoms: _86  and  _87
REMARK   36  A    between atoms: _89  and  _91
REMARK   37  A    between atoms: _91  and  _92
REMARK   38  A    between atoms: _91  and  _94
REMARK   39  A    between atoms: _94  and  _95
REMARK   40  A    between atoms: _98  and  _100
REMARK   41  A    between atoms: _100  and  _101
REMARK   42  A    between atoms: _100  and  _103
REMARK   43  A    between atoms: _103  and  _104
REMARK   44  A    between atoms: _107  and  _109
REMARK   45  A    between atoms: _109  and  _110
REMARK   46  A    between atoms: _113  and  _115
REMARK   47  A    between atoms: _115  and  _116
REMARK   48  A    between atoms: _115  and  _118
REMARK   49  A    between atoms: _118  and  _119
REMARK   50  A    between atoms: _119  and  _120
REMARK   51  A    between atoms: _120  and  _121
REMARK   52  A    between atoms: _121  and  _122
REMARK   53  A    between atoms: _126  and  _128
REMARK   54  A    between atoms: _128  and  _129
REMARK   55  A    between atoms: _131  and  _133
REMARK   56  A    between atoms: _133  and  _134
REMARK   57  A    between atoms: _133  and  _136
REMARK   58  A    between atoms: _136  and  _137
REMARK   59  A    between atoms: _140  and  _142
REMARK   60  A    between atoms: _142  and  _143
REMARK   61  A    between atoms: _142  and  _145
REMARK   62  A    between atoms: _145  and  _146
REMARK   63  A    between atoms: _149  and  _151
REMARK   64  A    between atoms: _151  and  _152
REMARK   65  A    between atoms: _151  and  _154
REMARK   66  A    between atoms: _154  and  _155
REMARK   67  A    between atoms: _161  and  _163
REMARK   68  A    between atoms: _163  and  _164
REMARK   69  A    between atoms: _167  and  _169
REMARK   70  A    between atoms: _169  and  _170
REMARK   71  A    between atoms: _169  and  _172
REMARK   72  A    between atoms: _172  and  _173
REMARK   73  A    between atoms: _175  and  _177
REMARK   74  A    between atoms: _177  and  _178
REMARK   75  A    between atoms: _177  and  _180
REMARK   76  A    between atoms: _180  and  _181
REMARK   77  A    between atoms: _181  and  _182
REMARK   78  A    between atoms: _182  and  _183
REMARK   79  A    between atoms: _183  and  _184
REMARK   80  A    between atoms: _188  and  _190
REMARK   81  A    between atoms: _190  and  _191
REMARK   82  A    between atoms: _190  and  _193
REMARK   83  A    between atoms: _193  and  _194
REMARK   84  A    between atoms: _194  and  _195
REMARK   85  A    between atoms: _200  and  _202
REMARK   86  A    between atoms: _202  and  _203
REMARK   87  A    between atoms: _202  and  _205
REMARK   88  A    between atoms: _205  and  _206
REMARK   89  A    between atoms: _209  and  _211
REMARK   90  A    between atoms: _211  and  _212
REMARK   91  A    between atoms: _211  and  _214
REMARK   92  A    between atoms: _214  and  _215
REMARK   93  A    between atoms: _218  and  _220
REMARK   94  A    between atoms: _220  and  _221
REMARK   95  A    between atoms: _220  and  _223
REMARK   96  A    between atoms: _223  and  _224
REMARK   97  A    between atoms: _227  and  _229
REMARK   98  A    between atoms: _229  and  _230
REMARK   99  A    between atoms: _229  and  _232
REMARK  100  A    between atoms: _232  and  _233
REMARK  101  A    between atoms: _233  and  _234
REMARK  102  A    between atoms: _234  and  _235
REMARK  103  A    between atoms: _244  and  _246
REMARK  104  A    between atoms: _246  and  _247
REMARK  105  A    between atoms: _246  and  _249
REMARK  106  A    between atoms: _249  and  _250
REMARK  107  A    between atoms: _253  and  _255
REMARK  108  A    between atoms: _255  and  _256
REMARK  109  A    between atoms: _255  and  _258
REMARK  110  A    between atoms: _258  and  _259
REMARK  111  A    between atoms: _259  and  _260
REMARK  112  A    between atoms: _260  and  _261
REMARK  113  A    between atoms: _261  and  _262
REMARK  114  A    between atoms: _266  and  _268
REMARK  115  A    between atoms: _268  and  _269
REMARK  116  A    between atoms: _268  and  _271
REMARK  117  A    between atoms: _271  and  _272
REMARK  118  A    between atoms: _272  and  _273
REMARK  119  A    between atoms: _275  and  _277
REMARK  120  A    between atoms: _277  and  _278
REMARK  121  A    between atoms: _277  and  _280
REMARK  122  A    between atoms: _280  and  _281
REMARK  123  A    between atoms: _281  and  _282
REMARK  124  A    between atoms: _285  and  _287
REMARK  125  A    between atoms: _287  and  _288
REMARK  126  A    between atoms: _287  and  _290
REMARK  127  A    between atoms: _292  and  _294
REMARK  128  A    between atoms: _294  and  _295
REMARK  129  A    between atoms: _294  and  _297
REMARK  130  A    between atoms: _297  and  _298
REMARK  131  A    between atoms: _301  and  _303
REMARK  132  A    between atoms: _303  and  _304
REMARK  133  A    between atoms: _303  and  _306
REMARK  134  A    between atoms: _306  and  _307
REMARK  135  A    between atoms: _310  and  _312
REMARK  136  A    between atoms: _312  and  _313
REMARK  137  A    between atoms: _312  and  _315
REMARK  138  A    between atoms: _315  and  _316
REMARK  139  A    between atoms: _319  and  _321
REMARK  140  A    between atoms: _321  and  _322
REMARK  141  A    between atoms: _321  and  _324
REMARK  142  A    between atoms: _324  and  _325
REMARK  143  A    between atoms: _330  and  _331
REMARK  144  A    between atoms: _333  and  _335
REMARK  145  A    between atoms: _335  and  _336
REMARK  146  A    between atoms: _335  and  _338
REMARK  147  A    between atoms: _338  and  _339
REMARK  148  A    between atoms: _342  and  _344
REMARK  149  A    between atoms: _344  and  _345
REMARK  150  A    between atoms: _344  and  _347
REMARK  151  A    between atoms: _349  and  _351
REMARK  152  A    between atoms: _351  and  _352
REMARK  153  A    between atoms: _351  and  _354
REMARK  154  A    between atoms: _354  and  _355
REMARK  155  A    between atoms: _358  and  _360
REMARK  156  A    between atoms: _360  and  _361
REMARK  157  A    between atoms: _363  and  _365
REMARK  158  A    between atoms: _365  and  _366
REMARK  159  A    between atoms: _365  and  _368
REMARK  160  A    between atoms: _368  and  _369
REMARK  161  A    between atoms: _369  and  _370
REMARK  162  A    between atoms: _370  and  _371
REMARK  163  A    between atoms: _371  and  _372
REMARK  164  A    between atoms: _376  and  _378
REMARK  165  A    between atoms: _378  and  _379
REMARK  166  A    between atoms: _378  and  _381
REMARK  167  A    between atoms: _381  and  _382
REMARK  168  A    between atoms: _387  and  _389
REMARK  169  A    between atoms: _389  and  _390
REMARK  170  A    between atoms: _389  and  _392
REMARK  171  A    between atoms: _392  and  _393
REMARK  172  A    between atoms: _396  and  _398
REMARK  173  A    between atoms: _398  and  _399
REMARK  174  A    between atoms: _398  and  _401
REMARK  175  A    between atoms: _401  and  _402
REMARK  176  A    between atoms: _412  and  _414
REMARK  177  A    between atoms: _414  and  _415
REMARK  178  A    between atoms: _414  and  _417
REMARK  179  A    between atoms: _417  and  _418
REMARK  180  A    between atoms: _418  and  _419
REMARK  181  A    between atoms: _419  and  _420
REMARK  182  A    between atoms: _420  and  _421
REMARK  183  A    between atoms: _426  and  _427
REMARK  184  A    between atoms: _432  and  _434
REMARK  185  A    between atoms: _434  and  _435
REMARK  186  A    between atoms: _438  and  _440
REMARK  187  A    between atoms: _440  and  _441
REMARK  188  A    between atoms: _440  and  _443
REMARK  189  A    between atoms: _446  and  _448
REMARK  190  A    between atoms: _448  and  _449
REMARK  191  A    between atoms: _448  and  _451
REMARK  192  A    between atoms: _451  and  _452
REMARK  193  A    between atoms: _452  and  _453
REMARK  194  A    between atoms: _456  and  _458
REMARK  195  A    between atoms: _458  and  _459
REMARK  196  A    between atoms: _462  and  _464
REMARK  197  A    between atoms: _464  and  _465
REMARK  198  A    between atoms: _464  and  _467
REMARK  199  A    between atoms: _467  and  _468
REMARK  200  A    between atoms: _473  and  _474
REMARK  201  A    between atoms: _476  and  _478
REMARK  202  A    between atoms: _478  and  _479
REMARK  203  A    between atoms: _481  and  _483
REMARK  204  A    between atoms: _483  and  _484
REMARK  205  A    between atoms: _483  and  _486
REMARK  206  A    between atoms: _486  and  _487
REMARK  207  A    between atoms: _487  and  _488
REMARK  208  A    between atoms: _491  and  _493
REMARK  209  A    between atoms: _493  and  _494
REMARK  210  A    between atoms: _493  and  _496
REMARK  211  A    between atoms: _496  and  _497
REMARK  212  A    between atoms: _503  and  _505
REMARK  213  A    between atoms: _505  and  _506
REMARK  214  A    between atoms: _505  and  _508
REMARK  215  A    between atoms: _508  and  _509
REMARK  216  A    between atoms: _512  and  _514
REMARK  217  A    between atoms: _514  and  _515
REMARK  218  A    between atoms: _514  and  _517
REMARK  219  A    between atoms: _519  and  _521
REMARK  220  A    between atoms: _521  and  _522
REMARK  221  A    between atoms: _521  and  _524
REMARK  222  A    between atoms: _524  and  _525
REMARK  223  A    between atoms: _531  and  _533
REMARK  224  A    between atoms: _533  and  _534
REMARK  225  A    between atoms: _533  and  _536
REMARK  226  A    between atoms: _536  and  _537
REMARK  227  A    between atoms: _537  and  _538
REMARK  228  A    between atoms: _541  and  _543
REMARK  229  A    between atoms: _543  and  _544
REMARK  230  A    between atoms: _543  and  _546
REMARK  231  A    between atoms: _546  and  _547
REMARK  232  A    between atoms: _550  and  _552
REMARK  233  A    between atoms: _552  and  _553
REMARK  234  A    between atoms: _552  and  _555
REMARK  235  A    between atoms: _555  and  _556
REMARK  236  A    between atoms: _556  and  _557
REMARK  237  A    between atoms: _557  and  _558
REMARK  238  A    between atoms: _567  and  _569
REMARK  239  A    between atoms: _569  and  _570
REMARK  240  A    between atoms: _569  and  _572
REMARK  241  A    between atoms: _572  and  _573
REMARK  242  A    between atoms: _576  and  _578
REMARK  243  A    between atoms: _578  and  _579
REMARK  244  A    between atoms: _578  and  _581
REMARK  245  A    between atoms: _581  and  _582
REMARK  246  A    between atoms: _588  and  _590
REMARK  247  A    between atoms: _590  and  _591
REMARK  248  A    between atoms: _590  and  _593
REMARK  249  A    between atoms: _596  and  _598
REMARK  250  A    between atoms: _598  and  _599
REMARK  251  A    between atoms: _603  and  _604
REMARK  252  A    between atoms: _609  and  _611
REMARK  253  A    between atoms: _611  and  _612
REMARK  254  A    between atoms: _611  and  _614
REMARK  255  A    between atoms: _614  and  _615
REMARK  256  A    between atoms: _618  and  _620
REMARK  257  A    between atoms: _620  and  _621
REMARK  258  A    between atoms: _620  and  _623
REMARK  259  A    between atoms: _623  and  _624
REMARK  260  A    between atoms: _631  and  _632
REMARK  261  A    between atoms: _637  and  _639
REMARK  262  A    between atoms: _639  and  _640
REMARK  263  A    between atoms: _639  and  _642
REMARK  264  A    between atoms: _645  and  _647
REMARK  265  A    between atoms: _647  and  _648
REMARK  266  A    between atoms: _651  and  _653
REMARK  267  A    between atoms: _653  and  _654
REMARK  268  A    between atoms: _653  and  _656
REMARK  269  A    between atoms: _656  and  _657
REMARK  270  A    between atoms: _662  and  _663
REMARK  271  A    between atoms: _665  and  _667
REMARK  272  A    between atoms: _667  and  _668
REMARK  273  A    between atoms: _667  and  _670
REMARK  274  A    between atoms: _670  and  _671
REMARK  275  A    between atoms: _676  and  _678
REMARK  276  A    between atoms: _678  and  _679
REMARK  277  A    between atoms: _678  and  _681
REMARK  278  A    between atoms: _681  and  _682
REMARK  279  A    between atoms: _685  and  _687
REMARK  280  A    between atoms: _687  and  _688
REMARK  281  A    between atoms: _687  and  _690
REMARK  282  A    between atoms: _690  and  _691
REMARK  283  A    between atoms: _694  and  _696
REMARK  284  A    between atoms: _696  and  _697
REMARK  285  A    between atoms: _696  and  _699
REMARK  286  A    between atoms: _699  and  _700
REMARK  287  A    between atoms: _700  and  _701
REMARK  288  A    between atoms: _701  and  _702
REMARK  289  A    between atoms: _702  and  _703
REMARK  290  A    between atoms: _707  and  _709
REMARK  291  A    between atoms: _709  and  _710
REMARK  292  A    between atoms: _709  and  _712
REMARK  293  A    between atoms: _712  and  _713
REMARK  294  A    between atoms: _719  and  _721
REMARK  295  A    between atoms: _721  and  _722
REMARK  296  A    between atoms: _721  and  _724
REMARK  297  A    between atoms: _724  and  _725
REMARK  298  A    between atoms: _728  and  _730
REMARK  299  A    between atoms: _730  and  _731
REMARK  300  A    between atoms: _730  and  _733
REMARK  301  A    between atoms: _733  and  _734
REMARK  302  A    between atoms: _736  and  _738
REMARK  303  A    between atoms: _738  and  _739
REMARK  304  A    between atoms: _738  and  _741
REMARK  305  A    between atoms: _741  and  _742
REMARK  306  A    between atoms: _745  and  _747
REMARK  307  A    between atoms: _747  and  _748
REMARK  308  A    between atoms: _747  and  _750
REMARK  309  A    between atoms: _750  and  _751
REMARK  310  A    between atoms: _751  and  _752
REMARK  311  A    between atoms: _752  and  _753
REMARK  312  A    between atoms: _762  and  _764
REMARK  313  A    between atoms: _764  and  _765
REMARK  314  A    between atoms: _764  and  _767
REMARK  315  A    between atoms: _767  and  _768
REMARK  316  A    between atoms: _771  and  _773
REMARK  317  A    between atoms: _773  and  _774
REMARK  318  A    between atoms: _773  and  _776
REMARK  319  A    between atoms: _776  and  _777
REMARK  320  A    between atoms: _777  and  _778
REMARK  321  A    between atoms: _780  and  _782
REMARK  322  A    between atoms: _782  and  _783
REMARK  323  A    between atoms: _782  and  _785
REMARK  324  A    between atoms: _788  and  _790
REMARK  325  A    between atoms: _790  and  _791
REMARK  326  A    between atoms: _790  and  _793
REMARK  327  A    between atoms: _793  and  _794
REMARK                            x       y       z     vdW  Elec       q    Type
REMARK                         _______ _______ _______ _____ _____    ______ ____
ROOT
ATOM      1  O   HOH     1      94.160  16.246   3.837  0.00  0.00    +0.000 OA
ENDROOT
TORSDOF 0
REMARK  Name = ../refined-set-2016/4omj/4omj_pocket.pdb
REMARK  327 active torsions:
REMARK  status: ('A' for Active; 'I' for Inactive)
REMARK    1  A    between atoms: _1  and  _3
REMARK    2  A    between atoms: _3  and  _4
REMARK    3  A    between atoms: _3  and  _6
REMARK    4  A    between atoms: _6  and  _7
REMARK    5  A    between atoms: _10  and  _12
REMARK    6  A    between atoms: _12  and  _13
REMARK    7  A    between atoms: _12  and  _15
REMARK    8  A    between atoms: _15  and  _16
REMARK    9  A    between atoms: _21  and  _22
REMARK   10  A    between atoms: _24  and  _26
REMARK   11  A    between atoms: _26  and  _27
REMARK   12  A    between atoms: _26  and  _29
REMARK   13  A    between atoms: _29  and  _30
REMARK   14  A    between atoms: _33  and  _35
REMARK   15  A    between atoms: _35  and  _36
REMARK   16  A    between atoms: _35  and  _38
REMARK   17  A    between atoms: _38  and  _39
REMARK   18  A    between atoms: _41  and  _43
REMARK   19  A    between atoms: _43  and  _44
REMARK   20  A    between atoms: _43  and  _46
REMARK   21  A    between atoms: _46  and  _47
REMARK   22  A    between atoms: _57  and  _59
REMARK   23  A    between atoms: _59  and  _60
REMARK   24  A    between atoms: _59  and  _62
REMARK   25  A    between atoms: _62  and  _63
REMARK   26  A    between atoms: _66  and  _68
REMARK   27  A    between atoms: _68  and  _69
REMARK   28  A    between atoms: _68  and  _71
REMARK   29  A    between atoms: _71  and  _72
REMARK   30  A    between atoms: _75  and  _77
REMARK   31  A    between atoms: _77  and  _78
REMARK   32  A    between atoms: _77  and  _80
REMARK   33  A    between atoms: _80  and  _81
REMARK   34  A    between atoms: _84  and  _86
REMARK   35  A    between atoms: _86  and  _87
REMARK   36  A    between atoms: _89  and  _91
REMARK   37  A    between atoms: _91  and  _92
REMARK   38  A    between atoms: _91  and  _94
REMARK   39  A    between atoms: _94  and  _95
REMARK   40  A    between atoms: _98  and  _100
REMARK   41  A    between atoms: _100  and  _101
REMARK   42  A    between atoms: _100  and  _103
REMARK   43  A    between atoms: _103  and  _104
REMARK   44  A    between atoms: _107  and  _109
REMARK   45  A    between atoms: _109  and  _110
REMARK   46  A    between atoms: _113  and  _115
REMARK   47  A    between atoms: _115  and  _116
REMARK   48  A    between atoms: _115  and  _118
REMARK   49  A    between atoms: _118  and  _119
REMARK   50  A    between atoms: _119  and  _120
REMARK   51  A    between atoms: _120  and  _121
REMARK   52  A    between atoms: _121  and  _122
REMARK   53  A    between atoms: _126  and  _128
REMARK   54  A    between atoms: _128  and  _129
REMARK   55  A    between atoms: _131  and  _133
REMARK   56  A    between atoms: _133  and  _134
REMARK   57  A    between atoms: _133  and  _136
REMARK   58  A    between atoms: _136  and  _137
REMARK   59  A    between atoms: _140  and  _142
REMARK   60  A    between atoms: _142  and  _143
REMARK   61  A    between atoms: _142  and  _145
REMARK   62  A    between atoms: _145  and  _146
REMARK   63  A    between atoms: _149  and  _151
REMARK   64  A    between atoms: _151  and  _152
REMARK   65  A    between atoms: _151  and  _154
REMARK   66  A    between atoms: _154  and  _155
REMARK   67  A    between atoms: _161  and  _163
REMARK   68  A    between atoms: _163  and  _164
REMARK   69  A    between atoms: _167  and  _169
REMARK   70  A    between atoms: _169  and  _170
REMARK   71  A    between atoms: _169  and  _172
REMARK   72  A    between atoms: _172  and  _173
REMARK   73  A    between atoms: _175  and  _177
REMARK   74  A    between atoms: _177  and  _178
REMARK   75  A    between atoms: _177  and  _180
REMARK   76  A    between atoms: _180  and  _181
REMARK   77  A    between atoms: _181  and  _182
REMARK   78  A    between atoms: _182  and  _183
REMARK   79  A    between atoms: _183  and  _184
REMARK   80  A    between atoms: _188  and  _190
REMARK   81  A    between atoms: _190  and  _191
REMARK   82  A    between atoms: _190  and  _193
REMARK   83  A    between atoms: _193  and  _194
REMARK   84  A    between atoms: _194  and  _195
REMARK   85  A    between atoms: _200  and  _202
REMARK   86  A    between atoms: _202  and  _203
REMARK   87  A    between atoms: _202  and  _205
REMARK   88  A    between atoms: _205  and  _206
REMARK   89  A    between atoms: _209  and  _211
REMARK   90  A    between atoms: _211  and  _212
REMARK   91  A    between atoms: _211  and  _214
REMARK   92  A    between atoms: _214  and  _215
REMARK   93  A    between atoms: _218  and  _220
REMARK   94  A    between atoms: _220  and  _221
REMARK   95  A    between atoms: _220  and  _223
REMARK   96  A    between atoms: _223  and  _224
REMARK   97  A    between atoms: _227  and  _229
REMARK   98  A    between atoms: _229  and  _230
REMARK   99  A    between atoms: _229  and  _232
REMARK  100  A    between atoms: _232  and  _233
REMARK  101  A    between atoms: _233  and  _234
REMARK  102  A    between atoms: _234  and  _235
REMARK  103  A    between atoms: _244  and  _246
REMARK  104  A    between atoms: _246  and  _247
REMARK  105  A    between atoms: _246  and  _249
REMARK  106  A    between atoms: _249  and  _250
REMARK  107  A    between atoms: _253  and  _255
REMARK  108  A    between atoms: _255  and  _256
REMARK  109  A    between atoms: _255  and  _258
REMARK  110  A    between atoms: _258  and  _259
REMARK  111  A    between atoms: _259  and  _260
REMARK  112  A    between atoms: _260  and  _261
REMARK  113  A    between atoms: _261  and  _262
REMARK  114  A    between atoms: _266  and  _268
REMARK  115  A    between atoms: _268  and  _269
REMARK  116  A    between atoms: _268  and  _271
REMARK  117  A    between atoms: _271  and  _272
REMARK  118  A    between atoms: _272  and  _273
REMARK  119  A    between atoms: _275  and  _277
REMARK  120  A    between atoms: _277  and  _278
REMARK  121  A    between atoms: _277  and  _280
REMARK  122  A    between atoms: _280  and  _281
REMARK  123  A    between atoms: _281  and  _282
REMARK  124  A    between atoms: _285  and  _287
REMARK  125  A    between atoms: _287  and  _288
REMARK  126  A    between atoms: _287  and  _290
REMARK  127  A    between atoms: _292  and  _294
REMARK  128  A    between atoms: _294  and  _295
REMARK  129  A    between atoms: _294  and  _297
REMARK  130  A    between atoms: _297  and  _298
REMARK  131  A    between atoms: _301  and  _303
REMARK  132  A    between atoms: _303  and  _304
REMARK  133  A    between atoms: _303  and  _306
REMARK  134  A    between atoms: _306  and  _307
REMARK  135  A    between atoms: _310  and  _312
REMARK  136  A    between atoms: _312  and  _313
REMARK  137  A    between atoms: _312  and  _315
REMARK  138  A    between atoms: _315  and  _316
REMARK  139  A    between atoms: _319  and  _321
REMARK  140  A    between atoms: _321  and  _322
REMARK  141  A    between atoms: _321  and  _324
REMARK  142  A    between atoms: _324  and  _325
REMARK  143  A    between atoms: _330  and  _331
REMARK  144  A    between atoms: _333  and  _335
REMARK  145  A    between atoms: _335  and  _336
REMARK  146  A    between atoms: _335  and  _338
REMARK  147  A    between atoms: _338  and  _339
REMARK  148  A    between atoms: _342  and  _344
REMARK  149  A    between atoms: _344  and  _345
REMARK  150  A    between atoms: _344  and  _347
REMARK  151  A    between atoms: _349  and  _351
REMARK  152  A    between atoms: _351  and  _352
REMARK  153  A    between atoms: _351  and  _354
REMARK  154  A    between atoms: _354  and  _355
REMARK  155  A    between atoms: _358  and  _360
REMARK  156  A    between atoms: _360  and  _361
REMARK  157  A    between atoms: _363  and  _365
REMARK  158  A    between atoms: _365  and  _366
REMARK  159  A    between atoms: _365  and  _368
REMARK  160  A    between atoms: _368  and  _369
REMARK  161  A    between atoms: _369  and  _370
REMARK  162  A    between atoms: _370  and  _371
REMARK  163  A    between atoms: _371  and  _372
REMARK  164  A    between atoms: _376  and  _378
REMARK  165  A    between atoms: _378  and  _379
REMARK  166  A    between atoms: _378  and  _381
REMARK  167  A    between atoms: _381  and  _382
REMARK  168  A    between atoms: _387  and  _389
REMARK  169  A    between atoms: _389  and  _390
REMARK  170  A    between atoms: _389  and  _392
REMARK  171  A    between atoms: _392  and  _393
REMARK  172  A    between atoms: _396  and  _398
REMARK  173  A    between atoms: _398  and  _399
REMARK  174  A    between atoms: _398  and  _401
REMARK  175  A    between atoms: _401  and  _402
REMARK  176  A    between atoms: _412  and  _414
REMARK  177  A    between atoms: _414  and  _415
REMARK  178  A    between atoms: _414  and  _417
REMARK  179  A    between atoms: _417  and  _418
REMARK  180  A    between atoms: _418  and  _419
REMARK  181  A    between atoms: _419  and  _420
REMARK  182  A    between atoms: _420  and  _421
REMARK  183  A    between atoms: _426  and  _427
REMARK  184  A    between atoms: _432  and  _434
REMARK  185  A    between atoms: _434  and  _435
REMARK  186  A    between atoms: _438  and  _440
REMARK  187  A    between atoms: _440  and  _441
REMARK  188  A    between atoms: _440  and  _443
REMARK  189  A    between atoms: _446  and  _448
REMARK  190  A    between atoms: _448  and  _449
REMARK  191  A    between atoms: _448  and  _451
REMARK  192  A    between atoms: _451  and  _452
REMARK  193  A    between atoms: _452  and  _453
REMARK  194  A    between atoms: _456  and  _458
REMARK  195  A    between atoms: _458  and  _459
REMARK  196  A    between atoms: _462  and  _464
REMARK  197  A    between atoms: _464  and  _465
REMARK  198  A    between atoms: _464  and  _467
REMARK  199  A    between atoms: _467  and  _468
REMARK  200  A    between atoms: _473  and  _474
REMARK  201  A    between atoms: _476  and  _478
REMARK  202  A    between atoms: _478  and  _479
REMARK  203  A    between atoms: _481  and  _483
REMARK  204  A    between atoms: _483  and  _484
REMARK  205  A    between atoms: _483  and  _486
REMARK  206  A    between atoms: _486  and  _487
REMARK  207  A    between atoms: _487  and  _488
REMARK  208  A    between atoms: _491  and  _493
REMARK  209  A    between atoms: _493  and  _494
REMARK  210  A    between atoms: _493  and  _496
REMARK  211  A    between atoms: _496  and  _497
REMARK  212  A    between atoms: _503  and  _505
REMARK  213  A    between atoms: _505  and  _506
REMARK  214  A    between atoms: _505  and  _508
REMARK  215  A    between atoms: _508  and  _509
REMARK  216  A    between atoms: _512  and  _514
REMARK  217  A    between atoms: _514  and  _515
REMARK  218  A    between atoms: _514  and  _517
REMARK  219  A    between atoms: _519  and  _521
REMARK  220  A    between atoms: _521  and  _522
REMARK  221  A    between atoms: _521  and  _524
REMARK  222  A    between atoms: _524  and  _525
REMARK  223  A    between atoms: _531  and  _533
REMARK  224  A    between atoms: _533  and  _534
REMARK  225  A    between atoms: _533  and  _536
REMARK  226  A    between atoms: _536  and  _537
REMARK  227  A    between atoms: _537  and  _538
REMARK  228  A    between atoms: _541  and  _543
REMARK  229  A    between atoms: _543  and  _544
REMARK  230  A    between atoms: _543  and  _546
REMARK  231  A    between atoms: _546  and  _547
REMARK  232  A    between atoms: _550  and  _552
REMARK  233  A    between atoms: _552  and  _553
REMARK  234  A    between atoms: _552  and  _555
REMARK  235  A    between atoms: _555  and  _556
REMARK  236  A    between atoms: _556  and  _557
REMARK  237  A    between atoms: _557  and  _558
REMARK  238  A    between atoms: _567  and  _569
REMARK  239  A    between atoms: _569  and  _570
REMARK  240  A    between atoms: _569  and  _572
REMARK  241  A    between atoms: _572  and  _573
REMARK  242  A    between atoms: _576  and  _578
REMARK  243  A    between atoms: _578  and  _579
REMARK  244  A    between atoms: _578  and  _581
REMARK  245  A    between atoms: _581  and  _582
REMARK  246  A    between atoms: _588  and  _590
REMARK  247  A    between atoms: _590  and  _591
REMARK  248  A    between atoms: _590  and  _593
REMARK  249  A    between atoms: _596  and  _598
REMARK  250  A    between atoms: _598  and  _599
REMARK  251  A    between atoms: _603  and  _604
REMARK  252  A    between atoms: _609  and  _611
REMARK  253  A    between atoms: _611  and  _612
REMARK  254  A    between atoms: _611  and  _614
REMARK  255  A    between atoms: _614  and  _615
REMARK  256  A    between atoms: _618  and  _620
REMARK  257  A    between atoms: _620  and  _621
REMARK  258  A    between atoms: _620  and  _623
REMARK  259  A    between atoms: _623  and  _624
REMARK  260  A    between atoms: _631  and  _632
REMARK  261  A    between atoms: _637  and  _639
REMARK  262  A    between atoms: _639  and  _640
REMARK  263  A    between atoms: _639  and  _642
REMARK  264  A    between atoms: _645  and  _647
REMARK  265  A    between atoms: _647  and  _648
REMARK  266  A    between atoms: _651  and  _653
REMARK  267  A    between atoms: _653  and  _654
REMARK  268  A    between atoms: _653  and  _656
REMARK  269  A    between atoms: _656  and  _657
REMARK  270  A    between atoms: _662  and  _663
REMARK  271  A    between atoms: _665  and  _667
REMARK  272  A    between atoms: _667  and  _668
REMARK  273  A    between atoms: _667  and  _670
REMARK  274  A    between atoms: _670  and  _671
REMARK  275  A    between atoms: _676  and  _678
REMARK  276  A    between atoms: _678  and  _679
REMARK  277  A    between atoms: _678  and  _681
REMARK  278  A    between atoms: _681  and  _682
REMARK  279  A    between atoms: _685  and  _687
REMARK  280  A    between atoms: _687  and  _688
REMARK  281  A    between atoms: _687  and  _690
REMARK  282  A    between atoms: _690  and  _691
REMARK  283  A    between atoms: _694  and  _696
REMARK  284  A    between atoms: _696  and  _697
REMARK  285  A    between atoms: _696  and  _699
REMARK  286  A    between atoms: _699  and  _700
REMARK  287  A    between atoms: _700  and  _701
REMARK  288  A    between atoms: _701  and  _702
REMARK  289  A    between atoms: _702  and  _703
REMARK  290  A    between atoms: _707  and  _709
REMARK  291  A    between atoms: _709  and  _710
REMARK  292  A    between atoms: _709  and  _712
REMARK  293  A    between atoms: _712  and  _713
REMARK  294  A    between atoms: _719  and  _721
REMARK  295  A    between atoms: _721  and  _722
REMARK  296  A    between atoms: _721  and  _724
REMARK  297  A    between atoms: _724  and  _725
REMARK  298  A    between atoms: _728  and  _730
REMARK  299  A    between atoms: _730  and  _731
REMARK  300  A    between atoms: _730  and  _733
REMARK  301  A    between atoms: _733  and  _734
REMARK  302  A    between atoms: _736  and  _738
REMARK  303  A    between atoms: _738  and  _739
REMARK  304  A    between atoms: _738  and  _741
REMARK  305  A    between atoms: _741  and  _742
REMARK  306  A    between atoms: _745  and  _747
REMARK  307  A    between atoms: _747  and  _748
REMARK  308  A    between atoms: _747  and  _750
REMARK  309  A    between atoms: _750  and  _751
REMARK  310  A    between atoms: _751  and  _752
REMARK  311  A    between atoms: _752  and  _753
REMARK  312  A    between atoms: _762  and  _764
REMARK  313  A    between atoms: _764  and  _765
REMARK  314  A    between atoms: _764  and  _767
REMARK  315  A    between atoms: _767  and  _768
REMARK  316  A    between atoms: _771  and  _773
REMARK  317  A    between atoms: _773  and  _774
REMARK  318  A    between atoms: _773  and  _776
REMARK  319  A    between atoms: _776  and  _777
REMARK  320  A    between atoms: _777  and  _778
REMARK  321  A    between atoms: _780  and  _782
REMARK  322  A    between atoms: _782  and  _783
REMARK  323  A    between atoms: _782  and  _785
REMARK  324  A    between atoms: _788  and  _790
REMARK  325  A    between atoms: _790  and  _791
REMARK  326  A    between atoms: _790  and  _793
REMARK  327  A    between atoms: _793  and  _794
REMARK                            x       y       z     vdW  Elec       q    Type
REMARK                         _______ _______ _______ _____ _____    ______ ____
ROOT
ATOM      1  O   HOH     1      79.286  -2.068  10.413  0.00  0.00    +0.000 OA
ENDROOT
TORSDOF 0
REMARK  Name = ../refined-set-2016/4omj/4omj_pocket.pdb
REMARK  327 active torsions:
REMARK  status: ('A' for Active; 'I' for Inactive)
REMARK    1  A    between atoms: _1  and  _3
REMARK    2  A    between atoms: _3  and  _4
REMARK    3  A    between atoms: _3  and  _6
REMARK    4  A    between atoms: _6  and  _7
REMARK    5  A    between atoms: _10  and  _12
REMARK    6  A    between atoms: _12  and  _13
REMARK    7  A    between atoms: _12  and  _15
REMARK    8  A    between atoms: _15  and  _16
REMARK    9  A    between atoms: _21  and  _22
REMARK   10  A    between atoms: _24  and  _26
REMARK   11  A    between atoms: _26  and  _27
REMARK   12  A    between atoms: _26  and  _29
REMARK   13  A    between atoms: _29  and  _30
REMARK   14  A    between atoms: _33  and  _35
REMARK   15  A    between atoms: _35  and  _36
REMARK   16  A    between atoms: _35  and  _38
REMARK   17  A    between atoms: _38  and  _39
REMARK   18  A    between atoms: _41  and  _43
REMARK   19  A    between atoms: _43  and  _44
REMARK   20  A    between atoms: _43  and  _46
REMARK   21  A    between atoms: _46  and  _47
REMARK   22  A    between atoms: _57  and  _59
REMARK   23  A    between atoms: _59  and  _60
REMARK   24  A    between atoms: _59  and  _62
REMARK   25  A    between atoms: _62  and  _63
REMARK   26  A    between atoms: _66  and  _68
REMARK   27  A    between atoms: _68  and  _69
REMARK   28  A    between atoms: _68  and  _71
REMARK   29  A    between atoms: _71  and  _72
REMARK   30  A    between atoms: _75  and  _77
REMARK   31  A    between atoms: _77  and  _78
REMARK   32  A    between atoms: _77  and  _80
REMARK   33  A    between atoms: _80  and  _81
REMARK   34  A    between atoms: _84  and  _86
REMARK   35  A    between atoms: _86  and  _87
REMARK   36  A    between atoms: _89  and  _91
REMARK   37  A    between atoms: _91  and  _92
REMARK   38  A    between atoms: _91  and  _94
REMARK   39  A    between atoms: _94  and  _95
REMARK   40  A    between atoms: _98  and  _100
REMARK   41  A    between atoms: _100  and  _101
REMARK   42  A    between atoms: _100  and  _103
REMARK   43  A    between atoms: _103  and  _104
REMARK   44  A    between atoms: _107  and  _109
REMARK   45  A    between atoms: _109  and  _110
REMARK   46  A    between atoms: _113  and  _115
REMARK   47  A    between atoms: _115  and  _116
REMARK   48  A    between atoms: _115  and  _118
REMARK   49  A    between atoms: _118  and  _119
REMARK   50  A    between atoms: _119  and  _120
REMARK   51  A    between atoms: _120  and  _121
REMARK   52  A    between atoms: _121  and  _122
REMARK   53  A    between atoms: _126  and  _128
REMARK   54  A    between atoms: _128  and  _129
REMARK   55  A    between atoms: _131  and  _133
REMARK   56  A    between atoms: _133  and  _134
REMARK   57  A    between atoms: _133  and  _136
REMARK   58  A    between atoms: _136  and  _137
REMARK   59  A    between atoms: _140  and  _142
REMARK   60  A    between atoms: _142  and  _143
REMARK   61  A    between atoms: _142  and  _145
REMARK   62  A    between atoms: _145  and  _146
REMARK   63  A    between atoms: _149  and  _151
REMARK   64  A    between atoms: _151  and  _152
REMARK   65  A    between atoms: _151  and  _154
REMARK   66  A    between atoms: _154  and  _155
REMARK   67  A    between atoms: _161  and  _163
REMARK   68  A    between atoms: _163  and  _164
REMARK   69  A    between atoms: _167  and  _169
REMARK   70  A    between atoms: _169  and  _170
REMARK   71  A    between atoms: _169  and  _172
REMARK   72  A    between atoms: _172  and  _173
REMARK   73  A    between atoms: _175  and  _177
REMARK   74  A    between atoms: _177  and  _178
REMARK   75  A    between atoms: _177  and  _180
REMARK   76  A    between atoms: _180  and  _181
REMARK   77  A    between atoms: _181  and  _182
REMARK   78  A    between atoms: _182  and  _183
REMARK   79  A    between atoms: _183  and  _184
REMARK   80  A    between atoms: _188  and  _190
REMARK   81  A    between atoms: _190  and  _191
REMARK   82  A    between atoms: _190  and  _193
REMARK   83  A    between atoms: _193  and  _194
REMARK   84  A    between atoms: _194  and  _195
REMARK   85  A    between atoms: _200  and  _202
REMARK   86  A    between atoms: _202  and  _203
REMARK   87  A    between atoms: _202  and  _205
REMARK   88  A    between atoms: _205  and  _206
REMARK   89  A    between atoms: _209  and  _211
REMARK   90  A    between atoms: _211  and  _212
REMARK   91  A    between atoms: _211  and  _214
REMARK   92  A    between atoms: _214  and  _215
REMARK   93  A    between atoms: _218  and  _220
REMARK   94  A    between atoms: _220  and  _221
REMARK   95  A    between atoms: _220  and  _223
REMARK   96  A    between atoms: _223  and  _224
REMARK   97  A    between atoms: _227  and  _229
REMARK   98  A    between atoms: _229  and  _230
REMARK   99  A    between atoms: _229  and  _232
REMARK  100  A    between atoms: _232  and  _233
REMARK  101  A    between atoms: _233  and  _234
REMARK  102  A    between atoms: _234  and  _235
REMARK  103  A    between atoms: _244  and  _246
REMARK  104  A    between atoms: _246  and  _247
REMARK  105  A    between atoms: _246  and  _249
REMARK  106  A    between atoms: _249  and  _250
REMARK  107  A    between atoms: _253  and  _255
REMARK  108  A    between atoms: _255  and  _256
REMARK  109  A    between atoms: _255  and  _258
REMARK  110  A    between atoms: _258  and  _259
REMARK  111  A    between atoms: _259  and  _260
REMARK  112  A    between atoms: _260  and  _261
REMARK  113  A    between atoms: _261  and  _262
REMARK  114  A    between atoms: _266  and  _268
REMARK  115  A    between atoms: _268  and  _269
REMARK  116  A    between atoms: _268  and  _271
REMARK  117  A    between atoms: _271  and  _272
REMARK  118  A    between atoms: _272  and  _273
REMARK  119  A    between atoms: _275  and  _277
REMARK  120  A    between atoms: _277  and  _278
REMARK  121  A    between atoms: _277  and  _280
REMARK  122  A    between atoms: _280  and  _281
REMARK  123  A    between atoms: _281  and  _282
REMARK  124  A    between atoms: _285  and  _287
REMARK  125  A    between atoms: _287  and  _288
REMARK  126  A    between atoms: _287  and  _290
REMARK  127  A    between atoms: _292  and  _294
REMARK  128  A    between atoms: _294  and  _295
REMARK  129  A    between atoms: _294  and  _297
REMARK  130  A    between atoms: _297  and  _298
REMARK  131  A    between atoms: _301  and  _303
REMARK  132  A    between atoms: _303  and  _304
REMARK  133  A    between atoms: _303  and  _306
REMARK  134  A    between atoms: _306  and  _307
REMARK  135  A    between atoms: _310  and  _312
REMARK  136  A    between atoms: _312  and  _313
REMARK  137  A    between atoms: _312  and  _315
REMARK  138  A    between atoms: _315  and  _316
REMARK  139  A    between atoms: _319  and  _321
REMARK  140  A    between atoms: _321  and  _322
REMARK  141  A    between atoms: _321  and  _324
REMARK  142  A    between atoms: _324  and  _325
REMARK  143  A    between atoms: _330  and  _331
REMARK  144  A    between atoms: _333  and  _335
REMARK  145  A    between atoms: _335  and  _336
REMARK  146  A    between atoms: _335  and  _338
REMARK  147  A    between atoms: _338  and  _339
REMARK  148  A    between atoms: _342  and  _344
REMARK  149  A    between atoms: _344  and  _345
REMARK  150  A    between atoms: _344  and  _347
REMARK  151  A    between atoms: _349  and  _351
REMARK  152  A    between atoms: _351  and  _352
REMARK  153  A    between atoms: _351  and  _354
REMARK  154  A    between atoms: _354  and  _355
REMARK  155  A    between atoms: _358  and  _360
REMARK  156  A    between atoms: _360  and  _361
REMARK  157  A    between atoms: _363  and  _365
REMARK  158  A    between atoms: _365  and  _366
REMARK  159  A    between atoms: _365  and  _368
REMARK  160  A    between atoms: _368  and  _369
REMARK  161  A    between atoms: _369  and  _370
REMARK  162  A    between atoms: _370  and  _371
REMARK  163  A    between atoms: _371  and  _372
REMARK  164  A    between atoms: _376  and  _378
REMARK  165  A    between atoms: _378  and  _379
REMARK  166  A    between atoms: _378  and  _381
REMARK  167  A    between atoms: _381  and  _382
REMARK  168  A    between atoms: _387  and  _389
REMARK  169  A    between atoms: _389  and  _390
REMARK  170  A    between atoms: _389  and  _392
REMARK  171  A    between atoms: _392  and  _393
REMARK  172  A    between atoms: _396  and  _398
REMARK  173  A    between atoms: _398  and  _399
REMARK  174  A    between atoms: _398  and  _401
REMARK  175  A    between atoms: _401  and  _402
REMARK  176  A    between atoms: _412  and  _414
REMARK  177  A    between atoms: _414  and  _415
REMARK  178  A    between atoms: _414  and  _417
REMARK  179  A    between atoms: _417  and  _418
REMARK  180  A    between atoms: _418  and  _419
REMARK  181  A    between atoms: _419  and  _420
REMARK  182  A    between atoms: _420  and  _421
REMARK  183  A    between atoms: _426  and  _427
REMARK  184  A    between atoms: _432  and  _434
REMARK  185  A    between atoms: _434  and  _435
REMARK  186  A    between atoms: _438  and  _440
REMARK  187  A    between atoms: _440  and  _441
REMARK  188  A    between atoms: _440  and  _443
REMARK  189  A    between atoms: _446  and  _448
REMARK  190  A    between atoms: _448  and  _449
REMARK  191  A    between atoms: _448  and  _451
REMARK  192  A    between atoms: _451  and  _452
REMARK  193  A    between atoms: _452  and  _453
REMARK  194  A    between atoms: _456  and  _458
REMARK  195  A    between atoms: _458  and  _459
REMARK  196  A    between atoms: _462  and  _464
REMARK  197  A    between atoms: _464  and  _465
REMARK  198  A    between atoms: _464  and  _467
REMARK  199  A    between atoms: _467  and  _468
REMARK  200  A    between atoms: _473  and  _474
REMARK  201  A    between atoms: _476  and  _478
REMARK  202  A    between atoms: _478  and  _479
REMARK  203  A    between atoms: _481  and  _483
REMARK  204  A    between atoms: _483  and  _484
REMARK  205  A    between atoms: _483  and  _486
REMARK  206  A    between atoms: _486  and  _487
REMARK  207  A    between atoms: _487  and  _488
REMARK  208  A    between atoms: _491  and  _493
REMARK  209  A    between atoms: _493  and  _494
REMARK  210  A    between atoms: _493  and  _496
REMARK  211  A    between atoms: _496  and  _497
REMARK  212  A    between atoms: _503  and  _505
REMARK  213  A    between atoms: _505  and  _506
REMARK  214  A    between atoms: _505  and  _508
REMARK  215  A    between atoms: _508  and  _509
REMARK  216  A    between atoms: _512  and  _514
REMARK  217  A    between atoms: _514  and  _515
REMARK  218  A    between atoms: _514  and  _517
REMARK  219  A    between atoms: _519  and  _521
REMARK  220  A    between atoms: _521  and  _522
REMARK  221  A    between atoms: _521  and  _524
REMARK  222  A    between atoms: _524  and  _525
REMARK  223  A    between atoms: _531  and  _533
REMARK  224  A    between atoms: _533  and  _534
REMARK  225  A    between atoms: _533  and  _536
REMARK  226  A    between atoms: _536  and  _537
REMARK  227  A    between atoms: _537  and  _538
REMARK  228  A    between atoms: _541  and  _543
REMARK  229  A    between atoms: _543  and  _544
REMARK  230  A    between atoms: _543  and  _546
REMARK  231  A    between atoms: _546  and  _547
REMARK  232  A    between atoms: _550  and  _552
REMARK  233  A    between atoms: _552  and  _553
REMARK  234  A    between atoms: _552  and  _555
REMARK  235  A    between atoms: _555  and  _556
REMARK  236  A    between atoms: _556  and  _557
REMARK  237  A    between atoms: _557  and  _558
REMARK  238  A    between atoms: _567  and  _569
REMARK  239  A    between atoms: _569  and  _570
REMARK  240  A    between atoms: _569  and  _572
REMARK  241  A    between atoms: _572  and  _573
REMARK  242  A    between atoms: _576  and  _578
REMARK  243  A    between atoms: _578  and  _579
REMARK  244  A    between atoms: _578  and  _581
REMARK  245  A    between atoms: _581  and  _582
REMARK  246  A    between atoms: _588  and  _590
REMARK  247  A    between atoms: _590  and  _591
REMARK  248  A    between atoms: _590  and  _593
REMARK  249  A    between atoms: _596  and  _598
REMARK  250  A    between atoms: _598  and  _599
REMARK  251  A    between atoms: _603  and  _604
REMARK  252  A    between atoms: _609  and  _611
REMARK  253  A    between atoms: _611  and  _612
REMARK  254  A    between atoms: _611  and  _614
REMARK  255  A    between atoms: _614  and  _615
REMARK  256  A    between atoms: _618  and  _620
REMARK  257  A    between atoms: _620  and  _621
REMARK  258  A    between atoms: _620  and  _623
REMARK  259  A    between atoms: _623  and  _624
REMARK  260  A    between atoms: _631  and  _632
REMARK  261  A    between atoms: _637  and  _639
REMARK  262  A    between atoms: _639  and  _640
REMARK  263  A    between atoms: _639  and  _642
REMARK  264  A    between atoms: _645  and  _647
REMARK  265  A    between atoms: _647  and  _648
REMARK  266  A    between atoms: _651  and  _653
REMARK  267  A    between atoms: _653  and  _654
REMARK  268  A    between atoms: _653  and  _656
REMARK  269  A    between atoms: _656  and  _657
REMARK  270  A    between atoms: _662  and  _663
REMARK  271  A    between atoms: _665  and  _667
REMARK  272  A    between atoms: _667  and  _668
REMARK  273  A    between atoms: _667  and  _670
REMARK  274  A    between atoms: _670  and  _671
REMARK  275  A    between atoms: _676  and  _678
REMARK  276  A    between atoms: _678  and  _679
REMARK  277  A    between atoms: _678  and  _681
REMARK  278  A    between atoms: _681  and  _682
REMARK  279  A    between atoms: _685  and  _687
REMARK  280  A    between atoms: _687  and  _688
REMARK  281  A    between atoms: _687  and  _690
REMARK  282  A    between atoms: _690  and  _691
REMARK  283  A    between atoms: _694  and  _696
REMARK  284  A    between atoms: _696  and  _697
REMARK  285  A    between atoms: _696  and  _699
REMARK  286  A    between atoms: _699  and  _700
REMARK  287  A    between atoms: _700  and  _701
REMARK  288  A    between atoms: _701  and  _702
REMARK  289  A    between atoms: _702  and  _703
REMARK  290  A    between atoms: _707  and  _709
REMARK  291  A    between atoms: _709  and  _710
REMARK  292  A    between atoms: _709  and  _712
REMARK  293  A    between atoms: _712  and  _713
REMARK  294  A    between atoms: _719  and  _721
REMARK  295  A    between atoms: _721  and  _722
REMARK  296  A    between atoms: _721  and  _724
REMARK  297  A    between atoms: _724  and  _725
REMARK  298  A    between atoms: _728  and  _730
REMARK  299  A    between atoms: _730  and  _731
REMARK  300  A    between atoms: _730  and  _733
REMARK  301  A    between atoms: _733  and  _734
REMARK  302  A    between atoms: _736  and  _738
REMARK  303  A    between atoms: _738  and  _739
REMARK  304  A    between atoms: _738  and  _741
REMARK  305  A    between atoms: _741  and  _742
REMARK  306  A    between atoms: _745  and  _747
REMARK  307  A    between atoms: _747  and  _748
REMARK  308  A    between atoms: _747  and  _750
REMARK  309  A    between atoms: _750  and  _751
REMARK  310  A    between atoms: _751  and  _752
REMARK  311  A    between atoms: _752  and  _753
REMARK  312  A    between atoms: _762  and  _764
REMARK  313  A    between atoms: _764  and  _765
REMARK  314  A    between atoms: _764  and  _767
REMARK  315  A    between atoms: _767  and  _768
REMARK  316  A    between atoms: _771  and  _773
REMARK  317  A    between atoms: _773  and  _774
REMARK  318  A    between atoms: _773  and  _776
REMARK  319  A    between atoms: _776  and  _777
REMARK  320  A    between atoms: _777  and  _778
REMARK  321  A    between atoms: _780  and  _782
REMARK  322  A    between atoms: _782  and  _783
REMARK  323  A    between atoms: _782  and  _785
REMARK  324  A    between atoms: _788  and  _790
REMARK  325  A    between atoms: _790  and  _791
REMARK  326  A    between atoms: _790  and  _793
REMARK  327  A    between atoms: _793  and  _794
REMARK                            x       y       z     vdW  Elec       q    Type
REMARK                         _______ _______ _______ _____ _____    ______ ____
ROOT
ATOM      1  O   HOH     1      95.316  15.014   2.423  0.00  0.00    +0.000 OA
ENDROOT
TORSDOF 0
REMARK  Name = ../refined-set-2016/4omj/4omj_pocket.pdb
REMARK  327 active torsions:
REMARK  status: ('A' for Active; 'I' for Inactive)
REMARK    1  A    between atoms: _1  and  _3
REMARK    2  A    between atoms: _3  and  _4
REMARK    3  A    between atoms: _3  and  _6
REMARK    4  A    between atoms: _6  and  _7
REMARK    5  A    between atoms: _10  and  _12
REMARK    6  A    between atoms: _12  and  _13
REMARK    7  A    between atoms: _12  and  _15
REMARK    8  A    between atoms: _15  and  _16
REMARK    9  A    between atoms: _21  and  _22
REMARK   10  A    between atoms: _24  and  _26
REMARK   11  A    between atoms: _26  and  _27
REMARK   12  A    between atoms: _26  and  _29
REMARK   13  A    between atoms: _29  and  _30
REMARK   14  A    between atoms: _33  and  _35
REMARK   15  A    between atoms: _35  and  _36
REMARK   16  A    between atoms: _35  and  _38
REMARK   17  A    between atoms: _38  and  _39
REMARK   18  A    between atoms: _41  and  _43
REMARK   19  A    between atoms: _43  and  _44
REMARK   20  A    between atoms: _43  and  _46
REMARK   21  A    between atoms: _46  and  _47
REMARK   22  A    between atoms: _57  and  _59
REMARK   23  A    between atoms: _59  and  _60
REMARK   24  A    between atoms: _59  and  _62
REMARK   25  A    between atoms: _62  and  _63
REMARK   26  A    between atoms: _66  and  _68
REMARK   27  A    between atoms: _68  and  _69
REMARK   28  A    between atoms: _68  and  _71
REMARK   29  A    between atoms: _71  and  _72
REMARK   30  A    between atoms: _75  and  _77
REMARK   31  A    between atoms: _77  and  _78
REMARK   32  A    between atoms: _77  and  _80
REMARK   33  A    between atoms: _80  and  _81
REMARK   34  A    between atoms: _84  and  _86
REMARK   35  A    between atoms: _86  and  _87
REMARK   36  A    between atoms: _89  and  _91
REMARK   37  A    between atoms: _91  and  _92
REMARK   38  A    between atoms: _91  and  _94
REMARK   39  A    between atoms: _94  and  _95
REMARK   40  A    between atoms: _98  and  _100
REMARK   41  A    between atoms: _100  and  _101
REMARK   42  A    between atoms: _100  and  _103
REMARK   43  A    between atoms: _103  and  _104
REMARK   44  A    between atoms: _107  and  _109
REMARK   45  A    between atoms: _109  and  _110
REMARK   46  A    between atoms: _113  and  _115
REMARK   47  A    between atoms: _115  and  _116
REMARK   48  A    between atoms: _115  and  _118
REMARK   49  A    between atoms: _118  and  _119
REMARK   50  A    between atoms: _119  and  _120
REMARK   51  A    between atoms: _120  and  _121
REMARK   52  A    between atoms: _121  and  _122
REMARK   53  A    between atoms: _126  and  _128
REMARK   54  A    between atoms: _128  and  _129
REMARK   55  A    between atoms: _131  and  _133
REMARK   56  A    between atoms: _133  and  _134
REMARK   57  A    between atoms: _133  and  _136
REMARK   58  A    between atoms: _136  and  _137
REMARK   59  A    between atoms: _140  and  _142
REMARK   60  A    between atoms: _142  and  _143
REMARK   61  A    between atoms: _142  and  _145
REMARK   62  A    between atoms: _145  and  _146
REMARK   63  A    between atoms: _149  and  _151
REMARK   64  A    between atoms: _151  and  _152
REMARK   65  A    between atoms: _151  and  _154
REMARK   66  A    between atoms: _154  and  _155
REMARK   67  A    between atoms: _161  and  _163
REMARK   68  A    between atoms: _163  and  _164
REMARK   69  A    between atoms: _167  and  _169
REMARK   70  A    between atoms: _169  and  _170
REMARK   71  A    between atoms: _169  and  _172
REMARK   72  A    between atoms: _172  and  _173
REMARK   73  A    between atoms: _175  and  _177
REMARK   74  A    between atoms: _177  and  _178
REMARK   75  A    between atoms: _177  and  _180
REMARK   76  A    between atoms: _180  and  _181
REMARK   77  A    between atoms: _181  and  _182
REMARK   78  A    between atoms: _182  and  _183
REMARK   79  A    between atoms: _183  and  _184
REMARK   80  A    between atoms: _188  and  _190
REMARK   81  A    between atoms: _190  and  _191
REMARK   82  A    between atoms: _190  and  _193
REMARK   83  A    between atoms: _193  and  _194
REMARK   84  A    between atoms: _194  and  _195
REMARK   85  A    between atoms: _200  and  _202
REMARK   86  A    between atoms: _202  and  _203
REMARK   87  A    between atoms: _202  and  _205
REMARK   88  A    between atoms: _205  and  _206
REMARK   89  A    between atoms: _209  and  _211
REMARK   90  A    between atoms: _211  and  _212
REMARK   91  A    between atoms: _211  and  _214
REMARK   92  A    between atoms: _214  and  _215
REMARK   93  A    between atoms: _218  and  _220
REMARK   94  A    between atoms: _220  and  _221
REMARK   95  A    between atoms: _220  and  _223
REMARK   96  A    between atoms: _223  and  _224
REMARK   97  A    between atoms: _227  and  _229
REMARK   98  A    between atoms: _229  and  _230
REMARK   99  A    between atoms: _229  and  _232
REMARK  100  A    between atoms: _232  and  _233
REMARK  101  A    between atoms: _233  and  _234
REMARK  102  A    between atoms: _234  and  _235
REMARK  103  A    between atoms: _244  and  _246
REMARK  104  A    between atoms: _246  and  _247
REMARK  105  A    between atoms: _246  and  _249
REMARK  106  A    between atoms: _249  and  _250
REMARK  107  A    between atoms: _253  and  _255
REMARK  108  A    between atoms: _255  and  _256
REMARK  109  A    between atoms: _255  and  _258
REMARK  110  A    between atoms: _258  and  _259
REMARK  111  A    between atoms: _259  and  _260
REMARK  112  A    between atoms: _260  and  _261
REMARK  113  A    between atoms: _261  and  _262
REMARK  114  A    between atoms: _266  and  _268
REMARK  115  A    between atoms: _268  and  _269
REMARK  116  A    between atoms: _268  and  _271
REMARK  117  A    between atoms: _271  and  _272
REMARK  118  A    between atoms: _272  and  _273
REMARK  119  A    between atoms: _275  and  _277
REMARK  120  A    between atoms: _277  and  _278
REMARK  121  A    between atoms: _277  and  _280
REMARK  122  A    between atoms: _280  and  _281
REMARK  123  A    between atoms: _281  and  _282
REMARK  124  A    between atoms: _285  and  _287
REMARK  125  A    between atoms: _287  and  _288
REMARK  126  A    between atoms: _287  and  _290
REMARK  127  A    between atoms: _292  and  _294
REMARK  128  A    between atoms: _294  and  _295
REMARK  129  A    between atoms: _294  and  _297
REMARK  130  A    between atoms: _297  and  _298
REMARK  131  A    between atoms: _301  and  _303
REMARK  132  A    between atoms: _303  and  _304
REMARK  133  A    between atoms: _303  and  _306
REMARK  134  A    between atoms: _306  and  _307
REMARK  135  A    between atoms: _310  and  _312
REMARK  136  A    between atoms: _312  and  _313
REMARK  137  A    between atoms: _312  and  _315
REMARK  138  A    between atoms: _315  and  _316
REMARK  139  A    between atoms: _319  and  _321
REMARK  140  A    between atoms: _321  and  _322
REMARK  141  A    between atoms: _321  and  _324
REMARK  142  A    between atoms: _324  and  _325
REMARK  143  A    between atoms: _330  and  _331
REMARK  144  A    between atoms: _333  and  _335
REMARK  145  A    between atoms: _335  and  _336
REMARK  146  A    between atoms: _335  and  _338
REMARK  147  A    between atoms: _338  and  _339
REMARK  148  A    between atoms: _342  and  _344
REMARK  149  A    between atoms: _344  and  _345
REMARK  150  A    between atoms: _344  and  _347
REMARK  151  A    between atoms: _349  and  _351
REMARK  152  A    between atoms: _351  and  _352
REMARK  153  A    between atoms: _351  and  _354
REMARK  154  A    between atoms: _354  and  _355
REMARK  155  A    between atoms: _358  and  _360
REMARK  156  A    between atoms: _360  and  _361
REMARK  157  A    between atoms: _363  and  _365
REMARK  158  A    between atoms: _365  and  _366
REMARK  159  A    between atoms: _365  and  _368
REMARK  160  A    between atoms: _368  and  _369
REMARK  161  A    between atoms: _369  and  _370
REMARK  162  A    between atoms: _370  and  _371
REMARK  163  A    between atoms: _371  and  _372
REMARK  164  A    between atoms: _376  and  _378
REMARK  165  A    between atoms: _378  and  _379
REMARK  166  A    between atoms: _378  and  _381
REMARK  167  A    between atoms: _381  and  _382
REMARK  168  A    between atoms: _387  and  _389
REMARK  169  A    between atoms: _389  and  _390
REMARK  170  A    between atoms: _389  and  _392
REMARK  171  A    between atoms: _392  and  _393
REMARK  172  A    between atoms: _396  and  _398
REMARK  173  A    between atoms: _398  and  _399
REMARK  174  A    between atoms: _398  and  _401
REMARK  175  A    between atoms: _401  and  _402
REMARK  176  A    between atoms: _412  and  _414
REMARK  177  A    between atoms: _414  and  _415
REMARK  178  A    between atoms: _414  and  _417
REMARK  179  A    between atoms: _417  and  _418
REMARK  180  A    between atoms: _418  and  _419
REMARK  181  A    between atoms: _419  and  _420
REMARK  182  A    between atoms: _420  and  _421
REMARK  183  A    between atoms: _426  and  _427
REMARK  184  A    between atoms: _432  and  _434
REMARK  185  A    between atoms: _434  and  _435
REMARK  186  A    between atoms: _438  and  _440
REMARK  187  A    between atoms: _440  and  _441
REMARK  188  A    between atoms: _440  and  _443
REMARK  189  A    between atoms: _446  and  _448
REMARK  190  A    between atoms: _448  and  _449
REMARK  191  A    between atoms: _448  and  _451
REMARK  192  A    between atoms: _451  and  _452
REMARK  193  A    between atoms: _452  and  _453
REMARK  194  A    between atoms: _456  and  _458
REMARK  195  A    between atoms: _458  and  _459
REMARK  196  A    between atoms: _462  and  _464
REMARK  197  A    between atoms: _464  and  _465
REMARK  198  A    between atoms: _464  and  _467
REMARK  199  A    between atoms: _467  and  _468
REMARK  200  A    between atoms: _473  and  _474
REMARK  201  A    between atoms: _476  and  _478
REMARK  202  A    between atoms: _478  and  _479
REMARK  203  A    between atoms: _481  and  _483
REMARK  204  A    between atoms: _483  and  _484
REMARK  205  A    between atoms: _483  and  _486
REMARK  206  A    between atoms: _486  and  _487
REMARK  207  A    between atoms: _487  and  _488
REMARK  208  A    between atoms: _491  and  _493
REMARK  209  A    between atoms: _493  and  _494
REMARK  210  A    between atoms: _493  and  _496
REMARK  211  A    between atoms: _496  and  _497
REMARK  212  A    between atoms: _503  and  _505
REMARK  213  A    between atoms: _505  and  _506
REMARK  214  A    between atoms: _505  and  _508
REMARK  215  A    between atoms: _508  and  _509
REMARK  216  A    between atoms: _512  and  _514
REMARK  217  A    between atoms: _514  and  _515
REMARK  218  A    between atoms: _514  and  _517
REMARK  219  A    between atoms: _519  and  _521
REMARK  220  A    between atoms: _521  and  _522
REMARK  221  A    between atoms: _521  and  _524
REMARK  222  A    between atoms: _524  and  _525
REMARK  223  A    between atoms: _531  and  _533
REMARK  224  A    between atoms: _533  and  _534
REMARK  225  A    between atoms: _533  and  _536
REMARK  226  A    between atoms: _536  and  _537
REMARK  227  A    between atoms: _537  and  _538
REMARK  228  A    between atoms: _541  and  _543
REMARK  229  A    between atoms: _543  and  _544
REMARK  230  A    between atoms: _543  and  _546
REMARK  231  A    between atoms: _546  and  _547
REMARK  232  A    between atoms: _550  and  _552
REMARK  233  A    between atoms: _552  and  _553
REMARK  234  A    between atoms: _552  and  _555
REMARK  235  A    between atoms: _555  and  _556
REMARK  236  A    between atoms: _556  and  _557
REMARK  237  A    between atoms: _557  and  _558
REMARK  238  A    between atoms: _567  and  _569
REMARK  239  A    between atoms: _569  and  _570
REMARK  240  A    between atoms: _569  and  _572
REMARK  241  A    between atoms: _572  and  _573
REMARK  242  A    between atoms: _576  and  _578
REMARK  243  A    between atoms: _578  and  _579
REMARK  244  A    between atoms: _578  and  _581
REMARK  245  A    between atoms: _581  and  _582
REMARK  246  A    between atoms: _588  and  _590
REMARK  247  A    between atoms: _590  and  _591
REMARK  248  A    between atoms: _590  and  _593
REMARK  249  A    between atoms: _596  and  _598
REMARK  250  A    between atoms: _598  and  _599
REMARK  251  A    between atoms: _603  and  _604
REMARK  252  A    between atoms: _609  and  _611
REMARK  253  A    between atoms: _611  and  _612
REMARK  254  A    between atoms: _611  and  _614
REMARK  255  A    between atoms: _614  and  _615
REMARK  256  A    between atoms: _618  and  _620
REMARK  257  A    between atoms: _620  and  _621
REMARK  258  A    between atoms: _620  and  _623
REMARK  259  A    between atoms: _623  and  _624
REMARK  260  A    between atoms: _631  and  _632
REMARK  261  A    between atoms: _637  and  _639
REMARK  262  A    between atoms: _639  and  _640
REMARK  263  A    between atoms: _639  and  _642
REMARK  264  A    between atoms: _645  and  _647
REMARK  265  A    between atoms: _647  and  _648
REMARK  266  A    between atoms: _651  and  _653
REMARK  267  A    between atoms: _653  and  _654
REMARK  268  A    between atoms: _653  and  _656
REMARK  269  A    between atoms: _656  and  _657
REMARK  270  A    between atoms: _662  and  _663
REMARK  271  A    between atoms: _665  and  _667
REMARK  272  A    between atoms: _667  and  _668
REMARK  273  A    between atoms: _667  and  _670
REMARK  274  A    between atoms: _670  and  _671
REMARK  275  A    between atoms: _676  and  _678
REMARK  276  A    between atoms: _678  and  _679
REMARK  277  A    between atoms: _678  and  _681
REMARK  278  A    between atoms: _681  and  _682
REMARK  279  A    between atoms: _685  and  _687
REMARK  280  A    between atoms: _687  and  _688
REMARK  281  A    between atoms: _687  and  _690
REMARK  282  A    between atoms: _690  and  _691
REMARK  283  A    between atoms: _694  and  _696
REMARK  284  A    between atoms: _696  and  _697
REMARK  285  A    between atoms: _696  and  _699
REMARK  286  A    between atoms: _699  and  _700
REMARK  287  A    between atoms: _700  and  _701
REMARK  288  A    between atoms: _701  and  _702
REMARK  289  A    between atoms: _702  and  _703
REMARK  290  A    between atoms: _707  and  _709
REMARK  291  A    between atoms: _709  and  _710
REMARK  292  A    between atoms: _709  and  _712
REMARK  293  A    between atoms: _712  and  _713
REMARK  294  A    between atoms: _719  and  _721
REMARK  295  A    between atoms: _721  and  _722
REMARK  296  A    between atoms: _721  and  _724
REMARK  297  A    between atoms: _724  and  _725
REMARK  298  A    between atoms: _728  and  _730
REMARK  299  A    between atoms: _730  and  _731
REMARK  300  A    between atoms: _730  and  _733
REMARK  301  A    between atoms: _733  and  _734
REMARK  302  A    between atoms: _736  and  _738
REMARK  303  A    between atoms: _738  and  _739
REMARK  304  A    between atoms: _738  and  _741
REMARK  305  A    between atoms: _741  and  _742
REMARK  306  A    between atoms: _745  and  _747
REMARK  307  A    between atoms: _747  and  _748
REMARK  308  A    between atoms: _747  and  _750
REMARK  309  A    between atoms: _750  and  _751
REMARK  310  A    between atoms: _751  and  _752
REMARK  311  A    between atoms: _752  and  _753
REMARK  312  A    between atoms: _762  and  _764
REMARK  313  A    between atoms: _764  and  _765
REMARK  314  A    between atoms: _764  and  _767
REMARK  315  A    between atoms: _767  and  _768
REMARK  316  A    between atoms: _771  and  _773
REMARK  317  A    between atoms: _773  and  _774
REMARK  318  A    between atoms: _773  and  _776
REMARK  319  A    between atoms: _776  and  _777
REMARK  320  A    between atoms: _777  and  _778
REMARK  321  A    between atoms: _780  and  _782
REMARK  322  A    between atoms: _782  and  _783
REMARK  323  A    between atoms: _782  and  _785
REMARK  324  A    between atoms: _788  and  _790
REMARK  325  A    between atoms: _790  and  _791
REMARK  326  A    between atoms: _790  and  _793
REMARK  327  A    between atoms: _793  and  _794
REMARK                            x       y       z     vdW  Elec       q    Type
REMARK                         _______ _______ _______ _____ _____    ______ ____
ROOT
ATOM      1  O   HOH     1      93.634  -4.585  13.725  0.00  0.00    +0.000 OA
ENDROOT
TORSDOF 0
REMARK  Name = ../refined-set-2016/4omj/4omj_pocket.pdb
REMARK  327 active torsions:
REMARK  status: ('A' for Active; 'I' for Inactive)
REMARK    1  A    between atoms: _1  and  _3
REMARK    2  A    between atoms: _3  and  _4
REMARK    3  A    between atoms: _3  and  _6
REMARK    4  A    between atoms: _6  and  _7
REMARK    5  A    between atoms: _10  and  _12
REMARK    6  A    between atoms: _12  and  _13
REMARK    7  A    between atoms: _12  and  _15
REMARK    8  A    between atoms: _15  and  _16
REMARK    9  A    between atoms: _21  and  _22
REMARK   10  A    between atoms: _24  and  _26
REMARK   11  A    between atoms: _26  and  _27
REMARK   12  A    between atoms: _26  and  _29
REMARK   13  A    between atoms: _29  and  _30
REMARK   14  A    between atoms: _33  and  _35
REMARK   15  A    between atoms: _35  and  _36
REMARK   16  A    between atoms: _35  and  _38
REMARK   17  A    between atoms: _38  and  _39
REMARK   18  A    between atoms: _41  and  _43
REMARK   19  A    between atoms: _43  and  _44
REMARK   20  A    between atoms: _43  and  _46
REMARK   21  A    between atoms: _46  and  _47
REMARK   22  A    between atoms: _57  and  _59
REMARK   23  A    between atoms: _59  and  _60
REMARK   24  A    between atoms: _59  and  _62
REMARK   25  A    between atoms: _62  and  _63
REMARK   26  A    between atoms: _66  and  _68
REMARK   27  A    between atoms: _68  and  _69
REMARK   28  A    between atoms: _68  and  _71
REMARK   29  A    between atoms: _71  and  _72
REMARK   30  A    between atoms: _75  and  _77
REMARK   31  A    between atoms: _77  and  _78
REMARK   32  A    between atoms: _77  and  _80
REMARK   33  A    between atoms: _80  and  _81
REMARK   34  A    between atoms: _84  and  _86
REMARK   35  A    between atoms: _86  and  _87
REMARK   36  A    between atoms: _89  and  _91
REMARK   37  A    between atoms: _91  and  _92
REMARK   38  A    between atoms: _91  and  _94
REMARK   39  A    between atoms: _94  and  _95
REMARK   40  A    between atoms: _98  and  _100
REMARK   41  A    between atoms: _100  and  _101
REMARK   42  A    between atoms: _100  and  _103
REMARK   43  A    between atoms: _103  and  _104
REMARK   44  A    between atoms: _107  and  _109
REMARK   45  A    between atoms: _109  and  _110
REMARK   46  A    between atoms: _113  and  _115
REMARK   47  A    between atoms: _115  and  _116
REMARK   48  A    between atoms: _115  and  _118
REMARK   49  A    between atoms: _118  and  _119
REMARK   50  A    between atoms: _119  and  _120
REMARK   51  A    between atoms: _120  and  _121
REMARK   52  A    between atoms: _121  and  _122
REMARK   53  A    between atoms: _126  and  _128
REMARK   54  A    between atoms: _128  and  _129
REMARK   55  A    between atoms: _131  and  _133
REMARK   56  A    between atoms: _133  and  _134
REMARK   57  A    between atoms: _133  and  _136
REMARK   58  A    between atoms: _136  and  _137
REMARK   59  A    between atoms: _140  and  _142
REMARK   60  A    between atoms: _142  and  _143
REMARK   61  A    between atoms: _142  and  _145
REMARK   62  A    between atoms: _145  and  _146
REMARK   63  A    between atoms: _149  and  _151
REMARK   64  A    between atoms: _151  and  _152
REMARK   65  A    between atoms: _151  and  _154
REMARK   66  A    between atoms: _154  and  _155
REMARK   67  A    between atoms: _161  and  _163
REMARK   68  A    between atoms: _163  and  _164
REMARK   69  A    between atoms: _167  and  _169
REMARK   70  A    between atoms: _169  and  _170
REMARK   71  A    between atoms: _169  and  _172
REMARK   72  A    between atoms: _172  and  _173
REMARK   73  A    between atoms: _175  and  _177
REMARK   74  A    between atoms: _177  and  _178
REMARK   75  A    between atoms: _177  and  _180
REMARK   76  A    between atoms: _180  and  _181
REMARK   77  A    between atoms: _181  and  _182
REMARK   78  A    between atoms: _182  and  _183
REMARK   79  A    between atoms: _183  and  _184
REMARK   80  A    between atoms: _188  and  _190
REMARK   81  A    between atoms: _190  and  _191
REMARK   82  A    between atoms: _190  and  _193
REMARK   83  A    between atoms: _193  and  _194
REMARK   84  A    between atoms: _194  and  _195
REMARK   85  A    between atoms: _200  and  _202
REMARK   86  A    between atoms: _202  and  _203
REMARK   87  A    between atoms: _202  and  _205
REMARK   88  A    between atoms: _205  and  _206
REMARK   89  A    between atoms: _209  and  _211
REMARK   90  A    between atoms: _211  and  _212
REMARK   91  A    between atoms: _211  and  _214
REMARK   92  A    between atoms: _214  and  _215
REMARK   93  A    between atoms: _218  and  _220
REMARK   94  A    between atoms: _220  and  _221
REMARK   95  A    between atoms: _220  and  _223
REMARK   96  A    between atoms: _223  and  _224
REMARK   97  A    between atoms: _227  and  _229
REMARK   98  A    between atoms: _229  and  _230
REMARK   99  A    between atoms: _229  and  _232
REMARK  100  A    between atoms: _232  and  _233
REMARK  101  A    between atoms: _233  and  _234
REMARK  102  A    between atoms: _234  and  _235
REMARK  103  A    between atoms: _244  and  _246
REMARK  104  A    between atoms: _246  and  _247
REMARK  105  A    between atoms: _246  and  _249
REMARK  106  A    between atoms: _249  and  _250
REMARK  107  A    between atoms: _253  and  _255
REMARK  108  A    between atoms: _255  and  _256
REMARK  109  A    between atoms: _255  and  _258
REMARK  110  A    between atoms: _258  and  _259
REMARK  111  A    between atoms: _259  and  _260
REMARK  112  A    between atoms: _260  and  _261
REMARK  113  A    between atoms: _261  and  _262
REMARK  114  A    between atoms: _266  and  _268
REMARK  115  A    between atoms: _268  and  _269
REMARK  116  A    between atoms: _268  and  _271
REMARK  117  A    between atoms: _271  and  _272
REMARK  118  A    between atoms: _272  and  _273
REMARK  119  A    between atoms: _275  and  _277
REMARK  120  A    between atoms: _277  and  _278
REMARK  121  A    between atoms: _277  and  _280
REMARK  122  A    between atoms: _280  and  _281
REMARK  123  A    between atoms: _281  and  _282
REMARK  124  A    between atoms: _285  and  _287
REMARK  125  A    between atoms: _287  and  _288
REMARK  126  A    between atoms: _287  and  _290
REMARK  127  A    between atoms: _292  and  _294
REMARK  128  A    between atoms: _294  and  _295
REMARK  129  A    between atoms: _294  and  _297
REMARK  130  A    between atoms: _297  and  _298
REMARK  131  A    between atoms: _301  and  _303
REMARK  132  A    between atoms: _303  and  _304
REMARK  133  A    between atoms: _303  and  _306
REMARK  134  A    between atoms: _306  and  _307
REMARK  135  A    between atoms: _310  and  _312
REMARK  136  A    between atoms: _312  and  _313
REMARK  137  A    between atoms: _312  and  _315
REMARK  138  A    between atoms: _315  and  _316
REMARK  139  A    between atoms: _319  and  _321
REMARK  140  A    between atoms: _321  and  _322
REMARK  141  A    between atoms: _321  and  _324
REMARK  142  A    between atoms: _324  and  _325
REMARK  143  A    between atoms: _330  and  _331
REMARK  144  A    between atoms: _333  and  _335
REMARK  145  A    between atoms: _335  and  _336
REMARK  146  A    between atoms: _335  and  _338
REMARK  147  A    between atoms: _338  and  _339
REMARK  148  A    between atoms: _342  and  _344
REMARK  149  A    between atoms: _344  and  _345
REMARK  150  A    between atoms: _344  and  _347
REMARK  151  A    between atoms: _349  and  _351
REMARK  152  A    between atoms: _351  and  _352
REMARK  153  A    between atoms: _351  and  _354
REMARK  154  A    between atoms: _354  and  _355
REMARK  155  A    between atoms: _358  and  _360
REMARK  156  A    between atoms: _360  and  _361
REMARK  157  A    between atoms: _363  and  _365
REMARK  158  A    between atoms: _365  and  _366
REMARK  159  A    between atoms: _365  and  _368
REMARK  160  A    between atoms: _368  and  _369
REMARK  161  A    between atoms: _369  and  _370
REMARK  162  A    between atoms: _370  and  _371
REMARK  163  A    between atoms: _371  and  _372
REMARK  164  A    between atoms: _376  and  _378
REMARK  165  A    between atoms: _378  and  _379
REMARK  166  A    between atoms: _378  and  _381
REMARK  167  A    between atoms: _381  and  _382
REMARK  168  A    between atoms: _387  and  _389
REMARK  169  A    between atoms: _389  and  _390
REMARK  170  A    between atoms: _389  and  _392
REMARK  171  A    between atoms: _392  and  _393
REMARK  172  A    between atoms: _396  and  _398
REMARK  173  A    between atoms: _398  and  _399
REMARK  174  A    between atoms: _398  and  _401
REMARK  175  A    between atoms: _401  and  _402
REMARK  176  A    between atoms: _412  and  _414
REMARK  177  A    between atoms: _414  and  _415
REMARK  178  A    between atoms: _414  and  _417
REMARK  179  A    between atoms: _417  and  _418
REMARK  180  A    between atoms: _418  and  _419
REMARK  181  A    between atoms: _419  and  _420
REMARK  182  A    between atoms: _420  and  _421
REMARK  183  A    between atoms: _426  and  _427
REMARK  184  A    between atoms: _432  and  _434
REMARK  185  A    between atoms: _434  and  _435
REMARK  186  A    between atoms: _438  and  _440
REMARK  187  A    between atoms: _440  and  _441
REMARK  188  A    between atoms: _440  and  _443
REMARK  189  A    between atoms: _446  and  _448
REMARK  190  A    between atoms: _448  and  _449
REMARK  191  A    between atoms: _448  and  _451
REMARK  192  A    between atoms: _451  and  _452
REMARK  193  A    between atoms: _452  and  _453
REMARK  194  A    between atoms: _456  and  _458
REMARK  195  A    between atoms: _458  and  _459
REMARK  196  A    between atoms: _462  and  _464
REMARK  197  A    between atoms: _464  and  _465
REMARK  198  A    between atoms: _464  and  _467
REMARK  199  A    between atoms: _467  and  _468
REMARK  200  A    between atoms: _473  and  _474
REMARK  201  A    between atoms: _476  and  _478
REMARK  202  A    between atoms: _478  and  _479
REMARK  203  A    between atoms: _481  and  _483
REMARK  204  A    between atoms: _483  and  _484
REMARK  205  A    between atoms: _483  and  _486
REMARK  206  A    between atoms: _486  and  _487
REMARK  207  A    between atoms: _487  and  _488
REMARK  208  A    between atoms: _491  and  _493
REMARK  209  A    between atoms: _493  and  _494
REMARK  210  A    between atoms: _493  and  _496
REMARK  211  A    between atoms: _496  and  _497
REMARK  212  A    between atoms: _503  and  _505
REMARK  213  A    between atoms: _505  and  _506
REMARK  214  A    between atoms: _505  and  _508
REMARK  215  A    between atoms: _508  and  _509
REMARK  216  A    between atoms: _512  and  _514
REMARK  217  A    between atoms: _514  and  _515
REMARK  218  A    between atoms: _514  and  _517
REMARK  219  A    between atoms: _519  and  _521
REMARK  220  A    between atoms: _521  and  _522
REMARK  221  A    between atoms: _521  and  _524
REMARK  222  A    between atoms: _524  and  _525
REMARK  223  A    between atoms: _531  and  _533
REMARK  224  A    between atoms: _533  and  _534
REMARK  225  A    between atoms: _533  and  _536
REMARK  226  A    between atoms: _536  and  _537
REMARK  227  A    between atoms: _537  and  _538
REMARK  228  A    between atoms: _541  and  _543
REMARK  229  A    between atoms: _543  and  _544
REMARK  230  A    between atoms: _543  and  _546
REMARK  231  A    between atoms: _546  and  _547
REMARK  232  A    between atoms: _550  and  _552
REMARK  233  A    between atoms: _552  and  _553
REMARK  234  A    between atoms: _552  and  _555
REMARK  235  A    between atoms: _555  and  _556
REMARK  236  A    between atoms: _556  and  _557
REMARK  237  A    between atoms: _557  and  _558
REMARK  238  A    between atoms: _567  and  _569
REMARK  239  A    between atoms: _569  and  _570
REMARK  240  A    between atoms: _569  and  _572
REMARK  241  A    between atoms: _572  and  _573
REMARK  242  A    between atoms: _576  and  _578
REMARK  243  A    between atoms: _578  and  _579
REMARK  244  A    between atoms: _578  and  _581
REMARK  245  A    between atoms: _581  and  _582
REMARK  246  A    between atoms: _588  and  _590
REMARK  247  A    between atoms: _590  and  _591
REMARK  248  A    between atoms: _590  and  _593
REMARK  249  A    between atoms: _596  and  _598
REMARK  250  A    between atoms: _598  and  _599
REMARK  251  A    between atoms: _603  and  _604
REMARK  252  A    between atoms: _609  and  _611
REMARK  253  A    between atoms: _611  and  _612
REMARK  254  A    between atoms: _611  and  _614
REMARK  255  A    between atoms: _614  and  _615
REMARK  256  A    between atoms: _618  and  _620
REMARK  257  A    between atoms: _620  and  _621
REMARK  258  A    between atoms: _620  and  _623
REMARK  259  A    between atoms: _623  and  _624
REMARK  260  A    between atoms: _631  and  _632
REMARK  261  A    between atoms: _637  and  _639
REMARK  262  A    between atoms: _639  and  _640
REMARK  263  A    between atoms: _639  and  _642
REMARK  264  A    between atoms: _645  and  _647
REMARK  265  A    between atoms: _647  and  _648
REMARK  266  A    between atoms: _651  and  _653
REMARK  267  A    between atoms: _653  and  _654
REMARK  268  A    between atoms: _653  and  _656
REMARK  269  A    between atoms: _656  and  _657
REMARK  270  A    between atoms: _662  and  _663
REMARK  271  A    between atoms: _665  and  _667
REMARK  272  A    between atoms: _667  and  _668
REMARK  273  A    between atoms: _667  and  _670
REMARK  274  A    between atoms: _670  and  _671
REMARK  275  A    between atoms: _676  and  _678
REMARK  276  A    between atoms: _678  and  _679
REMARK  277  A    between atoms: _678  and  _681
REMARK  278  A    between atoms: _681  and  _682
REMARK  279  A    between atoms: _685  and  _687
REMARK  280  A    between atoms: _687  and  _688
REMARK  281  A    between atoms: _687  and  _690
REMARK  282  A    between atoms: _690  and  _691
REMARK  283  A    between atoms: _694  and  _696
REMARK  284  A    between atoms: _696  and  _697
REMARK  285  A    between atoms: _696  and  _699
REMARK  286  A    between atoms: _699  and  _700
REMARK  287  A    between atoms: _700  and  _701
REMARK  288  A    between atoms: _701  and  _702
REMARK  289  A    between atoms: _702  and  _703
REMARK  290  A    between atoms: _707  and  _709
REMARK  291  A    between atoms: _709  and  _710
REMARK  292  A    between atoms: _709  and  _712
REMARK  293  A    between atoms: _712  and  _713
REMARK  294  A    between atoms: _719  and  _721
REMARK  295  A    between atoms: _721  and  _722
REMARK  296  A    between atoms: _721  and  _724
REMARK  297  A    between atoms: _724  and  _725
REMARK  298  A    between atoms: _728  and  _730
REMARK  299  A    between atoms: _730  and  _731
REMARK  300  A    between atoms: _730  and  _733
REMARK  301  A    between atoms: _733  and  _734
REMARK  302  A    between atoms: _736  and  _738
REMARK  303  A    between atoms: _738  and  _739
REMARK  304  A    between atoms: _738  and  _741
REMARK  305  A    between atoms: _741  and  _742
REMARK  306  A    between atoms: _745  and  _747
REMARK  307  A    between atoms: _747  and  _748
REMARK  308  A    between atoms: _747  and  _750
REMARK  309  A    between atoms: _750  and  _751
REMARK  310  A    between atoms: _751  and  _752
REMARK  311  A    between atoms: _752  and  _753
REMARK  312  A    between atoms: _762  and  _764
REMARK  313  A    between atoms: _764  and  _765
REMARK  314  A    between atoms: _764  and  _767
REMARK  315  A    between atoms: _767  and  _768
REMARK  316  A    between atoms: _771  and  _773
REMARK  317  A    between atoms: _773  and  _774
REMARK  318  A    between atoms: _773  and  _776
REMARK  319  A    between atoms: _776  and  _777
REMARK  320  A    between atoms: _777  and  _778
REMARK  321  A    between atoms: _780  and  _782
REMARK  322  A    between atoms: _782  and  _783
REMARK  323  A    between atoms: _782  and  _785
REMARK  324  A    between atoms: _788  and  _790
REMARK  325  A    between atoms: _790  and  _791
REMARK  326  A    between atoms: _790  and  _793
REMARK  327  A    between atoms: _793  and  _794
REMARK                            x       y       z     vdW  Elec       q    Type
REMARK                         _______ _______ _______ _____ _____    ______ ____
ROOT
ATOM      1  O   HOH     1      82.622   0.761   3.146  0.00  0.00    +0.000 OA
ENDROOT
TORSDOF 0
REMARK  Name = ../refined-set-2016/4omj/4omj_pocket.pdb
REMARK  327 active torsions:
REMARK  status: ('A' for Active; 'I' for Inactive)
REMARK    1  A    between atoms: _1  and  _3
REMARK    2  A    between atoms: _3  and  _4
REMARK    3  A    between atoms: _3  and  _6
REMARK    4  A    between atoms: _6  and  _7
REMARK    5  A    between atoms: _10  and  _12
REMARK    6  A    between atoms: _12  and  _13
REMARK    7  A    between atoms: _12  and  _15
REMARK    8  A    between atoms: _15  and  _16
REMARK    9  A    between atoms: _21  and  _22
REMARK   10  A    between atoms: _24  and  _26
REMARK   11  A    between atoms: _26  and  _27
REMARK   12  A    between atoms: _26  and  _29
REMARK   13  A    between atoms: _29  and  _30
REMARK   14  A    between atoms: _33  and  _35
REMARK   15  A    between atoms: _35  and  _36
REMARK   16  A    between atoms: _35  and  _38
REMARK   17  A    between atoms: _38  and  _39
REMARK   18  A    between atoms: _41  and  _43
REMARK   19  A    between atoms: _43  and  _44
REMARK   20  A    between atoms: _43  and  _46
REMARK   21  A    between atoms: _46  and  _47
REMARK   22  A    between atoms: _57  and  _59
REMARK   23  A    between atoms: _59  and  _60
REMARK   24  A    between atoms: _59  and  _62
REMARK   25  A    between atoms: _62  and  _63
REMARK   26  A    between atoms: _66  and  _68
REMARK   27  A    between atoms: _68  and  _69
REMARK   28  A    between atoms: _68  and  _71
REMARK   29  A    between atoms: _71  and  _72
REMARK   30  A    between atoms: _75  and  _77
REMARK   31  A    between atoms: _77  and  _78
REMARK   32  A    between atoms: _77  and  _80
REMARK   33  A    between atoms: _80  and  _81
REMARK   34  A    between atoms: _84  and  _86
REMARK   35  A    between atoms: _86  and  _87
REMARK   36  A    between atoms: _89  and  _91
REMARK   37  A    between atoms: _91  and  _92
REMARK   38  A    between atoms: _91  and  _94
REMARK   39  A    between atoms: _94  and  _95
REMARK   40  A    between atoms: _98  and  _100
REMARK   41  A    between atoms: _100  and  _101
REMARK   42  A    between atoms: _100  and  _103
REMARK   43  A    between atoms: _103  and  _104
REMARK   44  A    between atoms: _107  and  _109
REMARK   45  A    between atoms: _109  and  _110
REMARK   46  A    between atoms: _113  and  _115
REMARK   47  A    between atoms: _115  and  _116
REMARK   48  A    between atoms: _115  and  _118
REMARK   49  A    between atoms: _118  and  _119
REMARK   50  A    between atoms: _119  and  _120
REMARK   51  A    between atoms: _120  and  _121
REMARK   52  A    between atoms: _121  and  _122
REMARK   53  A    between atoms: _126  and  _128
REMARK   54  A    between atoms: _128  and  _129
REMARK   55  A    between atoms: _131  and  _133
REMARK   56  A    between atoms: _133  and  _134
REMARK   57  A    between atoms: _133  and  _136
REMARK   58  A    between atoms: _136  and  _137
REMARK   59  A    between atoms: _140  and  _142
REMARK   60  A    between atoms: _142  and  _143
REMARK   61  A    between atoms: _142  and  _145
REMARK   62  A    between atoms: _145  and  _146
REMARK   63  A    between atoms: _149  and  _151
REMARK   64  A    between atoms: _151  and  _152
REMARK   65  A    between atoms: _151  and  _154
REMARK   66  A    between atoms: _154  and  _155
REMARK   67  A    between atoms: _161  and  _163
REMARK   68  A    between atoms: _163  and  _164
REMARK   69  A    between atoms: _167  and  _169
REMARK   70  A    between atoms: _169  and  _170
REMARK   71  A    between atoms: _169  and  _172
REMARK   72  A    between atoms: _172  and  _173
REMARK   73  A    between atoms: _175  and  _177
REMARK   74  A    between atoms: _177  and  _178
REMARK   75  A    between atoms: _177  and  _180
REMARK   76  A    between atoms: _180  and  _181
REMARK   77  A    between atoms: _181  and  _182
REMARK   78  A    between atoms: _182  and  _183
REMARK   79  A    between atoms: _183  and  _184
REMARK   80  A    between atoms: _188  and  _190
REMARK   81  A    between atoms: _190  and  _191
REMARK   82  A    between atoms: _190  and  _193
REMARK   83  A    between atoms: _193  and  _194
REMARK   84  A    between atoms: _194  and  _195
REMARK   85  A    between atoms: _200  and  _202
REMARK   86  A    between atoms: _202  and  _203
REMARK   87  A    between atoms: _202  and  _205
REMARK   88  A    between atoms: _205  and  _206
REMARK   89  A    between atoms: _209  and  _211
REMARK   90  A    between atoms: _211  and  _212
REMARK   91  A    between atoms: _211  and  _214
REMARK   92  A    between atoms: _214  and  _215
REMARK   93  A    between atoms: _218  and  _220
REMARK   94  A    between atoms: _220  and  _221
REMARK   95  A    between atoms: _220  and  _223
REMARK   96  A    between atoms: _223  and  _224
REMARK   97  A    between atoms: _227  and  _229
REMARK   98  A    between atoms: _229  and  _230
REMARK   99  A    between atoms: _229  and  _232
REMARK  100  A    between atoms: _232  and  _233
REMARK  101  A    between atoms: _233  and  _234
REMARK  102  A    between atoms: _234  and  _235
REMARK  103  A    between atoms: _244  and  _246
REMARK  104  A    between atoms: _246  and  _247
REMARK  105  A    between atoms: _246  and  _249
REMARK  106  A    between atoms: _249  and  _250
REMARK  107  A    between atoms: _253  and  _255
REMARK  108  A    between atoms: _255  and  _256
REMARK  109  A    between atoms: _255  and  _258
REMARK  110  A    between atoms: _258  and  _259
REMARK  111  A    between atoms: _259  and  _260
REMARK  112  A    between atoms: _260  and  _261
REMARK  113  A    between atoms: _261  and  _262
REMARK  114  A    between atoms: _266  and  _268
REMARK  115  A    between atoms: _268  and  _269
REMARK  116  A    between atoms: _268  and  _271
REMARK  117  A    between atoms: _271  and  _272
REMARK  118  A    between atoms: _272  and  _273
REMARK  119  A    between atoms: _275  and  _277
REMARK  120  A    between atoms: _277  and  _278
REMARK  121  A    between atoms: _277  and  _280
REMARK  122  A    between atoms: _280  and  _281
REMARK  123  A    between atoms: _281  and  _282
REMARK  124  A    between atoms: _285  and  _287
REMARK  125  A    between atoms: _287  and  _288
REMARK  126  A    between atoms: _287  and  _290
REMARK  127  A    between atoms: _292  and  _294
REMARK  128  A    between atoms: _294  and  _295
REMARK  129  A    between atoms: _294  and  _297
REMARK  130  A    between atoms: _297  and  _298
REMARK  131  A    between atoms: _301  and  _303
REMARK  132  A    between atoms: _303  and  _304
REMARK  133  A    between atoms: _303  and  _306
REMARK  134  A    between atoms: _306  and  _307
REMARK  135  A    between atoms: _310  and  _312
REMARK  136  A    between atoms: _312  and  _313
REMARK  137  A    between atoms: _312  and  _315
REMARK  138  A    between atoms: _315  and  _316
REMARK  139  A    between atoms: _319  and  _321
REMARK  140  A    between atoms: _321  and  _322
REMARK  141  A    between atoms: _321  and  _324
REMARK  142  A    between atoms: _324  and  _325
REMARK  143  A    between atoms: _330  and  _331
REMARK  144  A    between atoms: _333  and  _335
REMARK  145  A    between atoms: _335  and  _336
REMARK  146  A    between atoms: _335  and  _338
REMARK  147  A    between atoms: _338  and  _339
REMARK  148  A    between atoms: _342  and  _344
REMARK  149  A    between atoms: _344  and  _345
REMARK  150  A    between atoms: _344  and  _347
REMARK  151  A    between atoms: _349  and  _351
REMARK  152  A    between atoms: _351  and  _352
REMARK  153  A    between atoms: _351  and  _354
REMARK  154  A    between atoms: _354  and  _355
REMARK  155  A    between atoms: _358  and  _360
REMARK  156  A    between atoms: _360  and  _361
REMARK  157  A    between atoms: _363  and  _365
REMARK  158  A    between atoms: _365  and  _366
REMARK  159  A    between atoms: _365  and  _368
REMARK  160  A    between atoms: _368  and  _369
REMARK  161  A    between atoms: _369  and  _370
REMARK  162  A    between atoms: _370  and  _371
REMARK  163  A    between atoms: _371  and  _372
REMARK  164  A    between atoms: _376  and  _378
REMARK  165  A    between atoms: _378  and  _379
REMARK  166  A    between atoms: _378  and  _381
REMARK  167  A    between atoms: _381  and  _382
REMARK  168  A    between atoms: _387  and  _389
REMARK  169  A    between atoms: _389  and  _390
REMARK  170  A    between atoms: _389  and  _392
REMARK  171  A    between atoms: _392  and  _393
REMARK  172  A    between atoms: _396  and  _398
REMARK  173  A    between atoms: _398  and  _399
REMARK  174  A    between atoms: _398  and  _401
REMARK  175  A    between atoms: _401  and  _402
REMARK  176  A    between atoms: _412  and  _414
REMARK  177  A    between atoms: _414  and  _415
REMARK  178  A    between atoms: _414  and  _417
REMARK  179  A    between atoms: _417  and  _418
REMARK  180  A    between atoms: _418  and  _419
REMARK  181  A    between atoms: _419  and  _420
REMARK  182  A    between atoms: _420  and  _421
REMARK  183  A    between atoms: _426  and  _427
REMARK  184  A    between atoms: _432  and  _434
REMARK  185  A    between atoms: _434  and  _435
REMARK  186  A    between atoms: _438  and  _440
REMARK  187  A    between atoms: _440  and  _441
REMARK  188  A    between atoms: _440  and  _443
REMARK  189  A    between atoms: _446  and  _448
REMARK  190  A    between atoms: _448  and  _449
REMARK  191  A    between atoms: _448  and  _451
REMARK  192  A    between atoms: _451  and  _452
REMARK  193  A    between atoms: _452  and  _453
REMARK  194  A    between atoms: _456  and  _458
REMARK  195  A    between atoms: _458  and  _459
REMARK  196  A    between atoms: _462  and  _464
REMARK  197  A    between atoms: _464  and  _465
REMARK  198  A    between atoms: _464  and  _467
REMARK  199  A    between atoms: _467  and  _468
REMARK  200  A    between atoms: _473  and  _474
REMARK  201  A    between atoms: _476  and  _478
REMARK  202  A    between atoms: _478  and  _479
REMARK  203  A    between atoms: _481  and  _483
REMARK  204  A    between atoms: _483  and  _484
REMARK  205  A    between atoms: _483  and  _486
REMARK  206  A    between atoms: _486  and  _487
REMARK  207  A    between atoms: _487  and  _488
REMARK  208  A    between atoms: _491  and  _493
REMARK  209  A    between atoms: _493  and  _494
REMARK  210  A    between atoms: _493  and  _496
REMARK  211  A    between atoms: _496  and  _497
REMARK  212  A    between atoms: _503  and  _505
REMARK  213  A    between atoms: _505  and  _506
REMARK  214  A    between atoms: _505  and  _508
REMARK  215  A    between atoms: _508  and  _509
REMARK  216  A    between atoms: _512  and  _514
REMARK  217  A    between atoms: _514  and  _515
REMARK  218  A    between atoms: _514  and  _517
REMARK  219  A    between atoms: _519  and  _521
REMARK  220  A    between atoms: _521  and  _522
REMARK  221  A    between atoms: _521  and  _524
REMARK  222  A    between atoms: _524  and  _525
REMARK  223  A    between atoms: _531  and  _533
REMARK  224  A    between atoms: _533  and  _534
REMARK  225  A    between atoms: _533  and  _536
REMARK  226  A    between atoms: _536  and  _537
REMARK  227  A    between atoms: _537  and  _538
REMARK  228  A    between atoms: _541  and  _543
REMARK  229  A    between atoms: _543  and  _544
REMARK  230  A    between atoms: _543  and  _546
REMARK  231  A    between atoms: _546  and  _547
REMARK  232  A    between atoms: _550  and  _552
REMARK  233  A    between atoms: _552  and  _553
REMARK  234  A    between atoms: _552  and  _555
REMARK  235  A    between atoms: _555  and  _556
REMARK  236  A    between atoms: _556  and  _557
REMARK  237  A    between atoms: _557  and  _558
REMARK  238  A    between atoms: _567  and  _569
REMARK  239  A    between atoms: _569  and  _570
REMARK  240  A    between atoms: _569  and  _572
REMARK  241  A    between atoms: _572  and  _573
REMARK  242  A    between atoms: _576  and  _578
REMARK  243  A    between atoms: _578  and  _579
REMARK  244  A    between atoms: _578  and  _581
REMARK  245  A    between atoms: _581  and  _582
REMARK  246  A    between atoms: _588  and  _590
REMARK  247  A    between atoms: _590  and  _591
REMARK  248  A    between atoms: _590  and  _593
REMARK  249  A    between atoms: _596  and  _598
REMARK  250  A    between atoms: _598  and  _599
REMARK  251  A    between atoms: _603  and  _604
REMARK  252  A    between atoms: _609  and  _611
REMARK  253  A    between atoms: _611  and  _612
REMARK  254  A    between atoms: _611  and  _614
REMARK  255  A    between atoms: _614  and  _615
REMARK  256  A    between atoms: _618  and  _620
REMARK  257  A    between atoms: _620  and  _621
REMARK  258  A    between atoms: _620  and  _623
REMARK  259  A    between atoms: _623  and  _624
REMARK  260  A    between atoms: _631  and  _632
REMARK  261  A    between atoms: _637  and  _639
REMARK  262  A    between atoms: _639  and  _640
REMARK  263  A    between atoms: _639  and  _642
REMARK  264  A    between atoms: _645  and  _647
REMARK  265  A    between atoms: _647  and  _648
REMARK  266  A    between atoms: _651  and  _653
REMARK  267  A    between atoms: _653  and  _654
REMARK  268  A    between atoms: _653  and  _656
REMARK  269  A    between atoms: _656  and  _657
REMARK  270  A    between atoms: _662  and  _663
REMARK  271  A    between atoms: _665  and  _667
REMARK  272  A    between atoms: _667  and  _668
REMARK  273  A    between atoms: _667  and  _670
REMARK  274  A    between atoms: _670  and  _671
REMARK  275  A    between atoms: _676  and  _678
REMARK  276  A    between atoms: _678  and  _679
REMARK  277  A    between atoms: _678  and  _681
REMARK  278  A    between atoms: _681  and  _682
REMARK  279  A    between atoms: _685  and  _687
REMARK  280  A    between atoms: _687  and  _688
REMARK  281  A    between atoms: _687  and  _690
REMARK  282  A    between atoms: _690  and  _691
REMARK  283  A    between atoms: _694  and  _696
REMARK  284  A    between atoms: _696  and  _697
REMARK  285  A    between atoms: _696  and  _699
REMARK  286  A    between atoms: _699  and  _700
REMARK  287  A    between atoms: _700  and  _701
REMARK  288  A    between atoms: _701  and  _702
REMARK  289  A    between atoms: _702  and  _703
REMARK  290  A    between atoms: _707  and  _709
REMARK  291  A    between atoms: _709  and  _710
REMARK  292  A    between atoms: _709  and  _712
REMARK  293  A    between atoms: _712  and  _713
REMARK  294  A    between atoms: _719  and  _721
REMARK  295  A    between atoms: _721  and  _722
REMARK  296  A    between atoms: _721  and  _724
REMARK  297  A    between atoms: _724  and  _725
REMARK  298  A    between atoms: _728  and  _730
REMARK  299  A    between atoms: _730  and  _731
REMARK  300  A    between atoms: _730  and  _733
REMARK  301  A    between atoms: _733  and  _734
REMARK  302  A    between atoms: _736  and  _738
REMARK  303  A    between atoms: _738  and  _739
REMARK  304  A    between atoms: _738  and  _741
REMARK  305  A    between atoms: _741  and  _742
REMARK  306  A    between atoms: _745  and  _747
REMARK  307  A    between atoms: _747  and  _748
REMARK  308  A    between atoms: _747  and  _750
REMARK  309  A    between atoms: _750  and  _751
REMARK  310  A    between atoms: _751  and  _752
REMARK  311  A    between atoms: _752  and  _753
REMARK  312  A    between atoms: _762  and  _764
REMARK  313  A    between atoms: _764  and  _765
REMARK  314  A    between atoms: _764  and  _767
REMARK  315  A    between atoms: _767  and  _768
REMARK  316  A    between atoms: _771  and  _773
REMARK  317  A    between atoms: _773  and  _774
REMARK  318  A    between atoms: _773  and  _776
REMARK  319  A    between atoms: _776  and  _777
REMARK  320  A    between atoms: _777  and  _778
REMARK  321  A    between atoms: _780  and  _782
REMARK  322  A    between atoms: _782  and  _783
REMARK  323  A    between atoms: _782  and  _785
REMARK  324  A    between atoms: _788  and  _790
REMARK  325  A    between atoms: _790  and  _791
REMARK  326  A    between atoms: _790  and  _793
REMARK  327  A    between atoms: _793  and  _794
REMARK                            x       y       z     vdW  Elec       q    Type
REMARK                         _______ _______ _______ _____ _____    ______ ____
ROOT
ATOM      1  O   HOH     1      82.781   2.380   1.424  0.00  0.00    +0.000 OA
ENDROOT
TORSDOF 0
REMARK  Name = ../refined-set-2016/4omj/4omj_pocket.pdb
REMARK  327 active torsions:
REMARK  status: ('A' for Active; 'I' for Inactive)
REMARK    1  A    between atoms: _1  and  _3
REMARK    2  A    between atoms: _3  and  _4
REMARK    3  A    between atoms: _3  and  _6
REMARK    4  A    between atoms: _6  and  _7
REMARK    5  A    between atoms: _10  and  _12
REMARK    6  A    between atoms: _12  and  _13
REMARK    7  A    between atoms: _12  and  _15
REMARK    8  A    between atoms: _15  and  _16
REMARK    9  A    between atoms: _21  and  _22
REMARK   10  A    between atoms: _24  and  _26
REMARK   11  A    between atoms: _26  and  _27
REMARK   12  A    between atoms: _26  and  _29
REMARK   13  A    between atoms: _29  and  _30
REMARK   14  A    between atoms: _33  and  _35
REMARK   15  A    between atoms: _35  and  _36
REMARK   16  A    between atoms: _35  and  _38
REMARK   17  A    between atoms: _38  and  _39
REMARK   18  A    between atoms: _41  and  _43
REMARK   19  A    between atoms: _43  and  _44
REMARK   20  A    between atoms: _43  and  _46
REMARK   21  A    between atoms: _46  and  _47
REMARK   22  A    between atoms: _57  and  _59
REMARK   23  A    between atoms: _59  and  _60
REMARK   24  A    between atoms: _59  and  _62
REMARK   25  A    between atoms: _62  and  _63
REMARK   26  A    between atoms: _66  and  _68
REMARK   27  A    between atoms: _68  and  _69
REMARK   28  A    between atoms: _68  and  _71
REMARK   29  A    between atoms: _71  and  _72
REMARK   30  A    between atoms: _75  and  _77
REMARK   31  A    between atoms: _77  and  _78
REMARK   32  A    between atoms: _77  and  _80
REMARK   33  A    between atoms: _80  and  _81
REMARK   34  A    between atoms: _84  and  _86
REMARK   35  A    between atoms: _86  and  _87
REMARK   36  A    between atoms: _89  and  _91
REMARK   37  A    between atoms: _91  and  _92
REMARK   38  A    between atoms: _91  and  _94
REMARK   39  A    between atoms: _94  and  _95
REMARK   40  A    between atoms: _98  and  _100
REMARK   41  A    between atoms: _100  and  _101
REMARK   42  A    between atoms: _100  and  _103
REMARK   43  A    between atoms: _103  and  _104
REMARK   44  A    between atoms: _107  and  _109
REMARK   45  A    between atoms: _109  and  _110
REMARK   46  A    between atoms: _113  and  _115
REMARK   47  A    between atoms: _115  and  _116
REMARK   48  A    between atoms: _115  and  _118
REMARK   49  A    between atoms: _118  and  _119
REMARK   50  A    between atoms: _119  and  _120
REMARK   51  A    between atoms: _120  and  _121
REMARK   52  A    between atoms: _121  and  _122
REMARK   53  A    between atoms: _126  and  _128
REMARK   54  A    between atoms: _128  and  _129
REMARK   55  A    between atoms: _131  and  _133
REMARK   56  A    between atoms: _133  and  _134
REMARK   57  A    between atoms: _133  and  _136
REMARK   58  A    between atoms: _136  and  _137
REMARK   59  A    between atoms: _140  and  _142
REMARK   60  A    between atoms: _142  and  _143
REMARK   61  A    between atoms: _142  and  _145
REMARK   62  A    between atoms: _145  and  _146
REMARK   63  A    between atoms: _149  and  _151
REMARK   64  A    between atoms: _151  and  _152
REMARK   65  A    between atoms: _151  and  _154
REMARK   66  A    between atoms: _154  and  _155
REMARK   67  A    between atoms: _161  and  _163
REMARK   68  A    between atoms: _163  and  _164
REMARK   69  A    between atoms: _167  and  _169
REMARK   70  A    between atoms: _169  and  _170
REMARK   71  A    between atoms: _169  and  _172
REMARK   72  A    between atoms: _172  and  _173
REMARK   73  A    between atoms: _175  and  _177
REMARK   74  A    between atoms: _177  and  _178
REMARK   75  A    between atoms: _177  and  _180
REMARK   76  A    between atoms: _180  and  _181
REMARK   77  A    between atoms: _181  and  _182
REMARK   78  A    between atoms: _182  and  _183
REMARK   79  A    between atoms: _183  and  _184
REMARK   80  A    between atoms: _188  and  _190
REMARK   81  A    between atoms: _190  and  _191
REMARK   82  A    between atoms: _190  and  _193
REMARK   83  A    between atoms: _193  and  _194
REMARK   84  A    between atoms: _194  and  _195
REMARK   85  A    between atoms: _200  and  _202
REMARK   86  A    between atoms: _202  and  _203
REMARK   87  A    between atoms: _202  and  _205
REMARK   88  A    between atoms: _205  and  _206
REMARK   89  A    between atoms: _209  and  _211
REMARK   90  A    between atoms: _211  and  _212
REMARK   91  A    between atoms: _211  and  _214
REMARK   92  A    between atoms: _214  and  _215
REMARK   93  A    between atoms: _218  and  _220
REMARK   94  A    between atoms: _220  and  _221
REMARK   95  A    between atoms: _220  and  _223
REMARK   96  A    between atoms: _223  and  _224
REMARK   97  A    between atoms: _227  and  _229
REMARK   98  A    between atoms: _229  and  _230
REMARK   99  A    between atoms: _229  and  _232
REMARK  100  A    between atoms: _232  and  _233
REMARK  101  A    between atoms: _233  and  _234
REMARK  102  A    between atoms: _234  and  _235
REMARK  103  A    between atoms: _244  and  _246
REMARK  104  A    between atoms: _246  and  _247
REMARK  105  A    between atoms: _246  and  _249
REMARK  106  A    between atoms: _249  and  _250
REMARK  107  A    between atoms: _253  and  _255
REMARK  108  A    between atoms: _255  and  _256
REMARK  109  A    between atoms: _255  and  _258
REMARK  110  A    between atoms: _258  and  _259
REMARK  111  A    between atoms: _259  and  _260
REMARK  112  A    between atoms: _260  and  _261
REMARK  113  A    between atoms: _261  and  _262
REMARK  114  A    between atoms: _266  and  _268
REMARK  115  A    between atoms: _268  and  _269
REMARK  116  A    between atoms: _268  and  _271
REMARK  117  A    between atoms: _271  and  _272
REMARK  118  A    between atoms: _272  and  _273
REMARK  119  A    between atoms: _275  and  _277
REMARK  120  A    between atoms: _277  and  _278
REMARK  121  A    between atoms: _277  and  _280
REMARK  122  A    between atoms: _280  and  _281
REMARK  123  A    between atoms: _281  and  _282
REMARK  124  A    between atoms: _285  and  _287
REMARK  125  A    between atoms: _287  and  _288
REMARK  126  A    between atoms: _287  and  _290
REMARK  127  A    between atoms: _292  and  _294
REMARK  128  A    between atoms: _294  and  _295
REMARK  129  A    between atoms: _294  and  _297
REMARK  130  A    between atoms: _297  and  _298
REMARK  131  A    between atoms: _301  and  _303
REMARK  132  A    between atoms: _303  and  _304
REMARK  133  A    between atoms: _303  and  _306
REMARK  134  A    between atoms: _306  and  _307
REMARK  135  A    between atoms: _310  and  _312
REMARK  136  A    between atoms: _312  and  _313
REMARK  137  A    between atoms: _312  and  _315
REMARK  138  A    between atoms: _315  and  _316
REMARK  139  A    between atoms: _319  and  _321
REMARK  140  A    between atoms: _321  and  _322
REMARK  141  A    between atoms: _321  and  _324
REMARK  142  A    between atoms: _324  and  _325
REMARK  143  A    between atoms: _330  and  _331
REMARK  144  A    between atoms: _333  and  _335
REMARK  145  A    between atoms: _335  and  _336
REMARK  146  A    between atoms: _335  and  _338
REMARK  147  A    between atoms: _338  and  _339
REMARK  148  A    between atoms: _342  and  _344
REMARK  149  A    between atoms: _344  and  _345
REMARK  150  A    between atoms: _344  and  _347
REMARK  151  A    between atoms: _349  and  _351
REMARK  152  A    between atoms: _351  and  _352
REMARK  153  A    between atoms: _351  and  _354
REMARK  154  A    between atoms: _354  and  _355
REMARK  155  A    between atoms: _358  and  _360
REMARK  156  A    between atoms: _360  and  _361
REMARK  157  A    between atoms: _363  and  _365
REMARK  158  A    between atoms: _365  and  _366
REMARK  159  A    between atoms: _365  and  _368
REMARK  160  A    between atoms: _368  and  _369
REMARK  161  A    between atoms: _369  and  _370
REMARK  162  A    between atoms: _370  and  _371
REMARK  163  A    between atoms: _371  and  _372
REMARK  164  A    between atoms: _376  and  _378
REMARK  165  A    between atoms: _378  and  _379
REMARK  166  A    between atoms: _378  and  _381
REMARK  167  A    between atoms: _381  and  _382
REMARK  168  A    between atoms: _387  and  _389
REMARK  169  A    between atoms: _389  and  _390
REMARK  170  A    between atoms: _389  and  _392
REMARK  171  A    between atoms: _392  and  _393
REMARK  172  A    between atoms: _396  and  _398
REMARK  173  A    between atoms: _398  and  _399
REMARK  174  A    between atoms: _398  and  _401
REMARK  175  A    between atoms: _401  and  _402
REMARK  176  A    between atoms: _412  and  _414
REMARK  177  A    between atoms: _414  and  _415
REMARK  178  A    between atoms: _414  and  _417
REMARK  179  A    between atoms: _417  and  _418
REMARK  180  A    between atoms: _418  and  _419
REMARK  181  A    between atoms: _419  and  _420
REMARK  182  A    between atoms: _420  and  _421
REMARK  183  A    between atoms: _426  and  _427
REMARK  184  A    between atoms: _432  and  _434
REMARK  185  A    between atoms: _434  and  _435
REMARK  186  A    between atoms: _438  and  _440
REMARK  187  A    between atoms: _440  and  _441
REMARK  188  A    between atoms: _440  and  _443
REMARK  189  A    between atoms: _446  and  _448
REMARK  190  A    between atoms: _448  and  _449
REMARK  191  A    between atoms: _448  and  _451
REMARK  192  A    between atoms: _451  and  _452
REMARK  193  A    between atoms: _452  and  _453
REMARK  194  A    between atoms: _456  and  _458
REMARK  195  A    between atoms: _458  and  _459
REMARK  196  A    between atoms: _462  and  _464
REMARK  197  A    between atoms: _464  and  _465
REMARK  198  A    between atoms: _464  and  _467
REMARK  199  A    between atoms: _467  and  _468
REMARK  200  A    between atoms: _473  and  _474
REMARK  201  A    between atoms: _476  and  _478
REMARK  202  A    between atoms: _478  and  _479
REMARK  203  A    between atoms: _481  and  _483
REMARK  204  A    between atoms: _483  and  _484
REMARK  205  A    between atoms: _483  and  _486
REMARK  206  A    between atoms: _486  and  _487
REMARK  207  A    between atoms: _487  and  _488
REMARK  208  A    between atoms: _491  and  _493
REMARK  209  A    between atoms: _493  and  _494
REMARK  210  A    between atoms: _493  and  _496
REMARK  211  A    between atoms: _496  and  _497
REMARK  212  A    between atoms: _503  and  _505
REMARK  213  A    between atoms: _505  and  _506
REMARK  214  A    between atoms: _505  and  _508
REMARK  215  A    between atoms: _508  and  _509
REMARK  216  A    between atoms: _512  and  _514
REMARK  217  A    between atoms: _514  and  _515
REMARK  218  A    between atoms: _514  and  _517
REMARK  219  A    between atoms: _519  and  _521
REMARK  220  A    between atoms: _521  and  _522
REMARK  221  A    between atoms: _521  and  _524
REMARK  222  A    between atoms: _524  and  _525
REMARK  223  A    between atoms: _531  and  _533
REMARK  224  A    between atoms: _533  and  _534
REMARK  225  A    between atoms: _533  and  _536
REMARK  226  A    between atoms: _536  and  _537
REMARK  227  A    between atoms: _537  and  _538
REMARK  228  A    between atoms: _541  and  _543
REMARK  229  A    between atoms: _543  and  _544
REMARK  230  A    between atoms: _543  and  _546
REMARK  231  A    between atoms: _546  and  _547
REMARK  232  A    between atoms: _550  and  _552
REMARK  233  A    between atoms: _552  and  _553
REMARK  234  A    between atoms: _552  and  _555
REMARK  235  A    between atoms: _555  and  _556
REMARK  236  A    between atoms: _556  and  _557
REMARK  237  A    between atoms: _557  and  _558
REMARK  238  A    between atoms: _567  and  _569
REMARK  239  A    between atoms: _569  and  _570
REMARK  240  A    between atoms: _569  and  _572
REMARK  241  A    between atoms: _572  and  _573
REMARK  242  A    between atoms: _576  and  _578
REMARK  243  A    between atoms: _578  and  _579
REMARK  244  A    between atoms: _578  and  _581
REMARK  245  A    between atoms: _581  and  _582
REMARK  246  A    between atoms: _588  and  _590
REMARK  247  A    between atoms: _590  and  _591
REMARK  248  A    between atoms: _590  and  _593
REMARK  249  A    between atoms: _596  and  _598
REMARK  250  A    between atoms: _598  and  _599
REMARK  251  A    between atoms: _603  and  _604
REMARK  252  A    between atoms: _609  and  _611
REMARK  253  A    between atoms: _611  and  _612
REMARK  254  A    between atoms: _611  and  _614
REMARK  255  A    between atoms: _614  and  _615
REMARK  256  A    between atoms: _618  and  _620
REMARK  257  A    between atoms: _620  and  _621
REMARK  258  A    between atoms: _620  and  _623
REMARK  259  A    between atoms: _623  and  _624
REMARK  260  A    between atoms: _631  and  _632
REMARK  261  A    between atoms: _637  and  _639
REMARK  262  A    between atoms: _639  and  _640
REMARK  263  A    between atoms: _639  and  _642
REMARK  264  A    between atoms: _645  and  _647
REMARK  265  A    between atoms: _647  and  _648
REMARK  266  A    between atoms: _651  and  _653
REMARK  267  A    between atoms: _653  and  _654
REMARK  268  A    between atoms: _653  and  _656
REMARK  269  A    between atoms: _656  and  _657
REMARK  270  A    between atoms: _662  and  _663
REMARK  271  A    between atoms: _665  and  _667
REMARK  272  A    between atoms: _667  and  _668
REMARK  273  A    between atoms: _667  and  _670
REMARK  274  A    between atoms: _670  and  _671
REMARK  275  A    between atoms: _676  and  _678
REMARK  276  A    between atoms: _678  and  _679
REMARK  277  A    between atoms: _678  and  _681
REMARK  278  A    between atoms: _681  and  _682
REMARK  279  A    between atoms: _685  and  _687
REMARK  280  A    between atoms: _687  and  _688
REMARK  281  A    between atoms: _687  and  _690
REMARK  282  A    between atoms: _690  and  _691
REMARK  283  A    between atoms: _694  and  _696
REMARK  284  A    between atoms: _696  and  _697
REMARK  285  A    between atoms: _696  and  _699
REMARK  286  A    between atoms: _699  and  _700
REMARK  287  A    between atoms: _700  and  _701
REMARK  288  A    between atoms: _701  and  _702
REMARK  289  A    between atoms: _702  and  _703
REMARK  290  A    between atoms: _707  and  _709
REMARK  291  A    between atoms: _709  and  _710
REMARK  292  A    between atoms: _709  and  _712
REMARK  293  A    between atoms: _712  and  _713
REMARK  294  A    between atoms: _719  and  _721
REMARK  295  A    between atoms: _721  and  _722
REMARK  296  A    between atoms: _721  and  _724
REMARK  297  A    between atoms: _724  and  _725
REMARK  298  A    between atoms: _728  and  _730
REMARK  299  A    between atoms: _730  and  _731
REMARK  300  A    between atoms: _730  and  _733
REMARK  301  A    between atoms: _733  and  _734
REMARK  302  A    between atoms: _736  and  _738
REMARK  303  A    between atoms: _738  and  _739
REMARK  304  A    between atoms: _738  and  _741
REMARK  305  A    between atoms: _741  and  _742
REMARK  306  A    between atoms: _745  and  _747
REMARK  307  A    between atoms: _747  and  _748
REMARK  308  A    between atoms: _747  and  _750
REMARK  309  A    between atoms: _750  and  _751
REMARK  310  A    between atoms: _751  and  _752
REMARK  311  A    between atoms: _752  and  _753
REMARK  312  A    between atoms: _762  and  _764
REMARK  313  A    between atoms: _764  and  _765
REMARK  314  A    between atoms: _764  and  _767
REMARK  315  A    between atoms: _767  and  _768
REMARK  316  A    between atoms: _771  and  _773
REMARK  317  A    between atoms: _773  and  _774
REMARK  318  A    between atoms: _773  and  _776
REMARK  319  A    between atoms: _776  and  _777
REMARK  320  A    between atoms: _777  and  _778
REMARK  321  A    between atoms: _780  and  _782
REMARK  322  A    between atoms: _782  and  _783
REMARK  323  A    between atoms: _782  and  _785
REMARK  324  A    between atoms: _788  and  _790
REMARK  325  A    between atoms: _790  and  _791
REMARK  326  A    between atoms: _790  and  _793
REMARK  327  A    between atoms: _793  and  _794
REMARK                            x       y       z     vdW  Elec       q    Type
REMARK                         _______ _______ _______ _____ _____    ______ ____
ROOT
ATOM      1  O   HOH     1      84.651   3.438   2.152  0.00  0.00    +0.000 OA
ENDROOT
TORSDOF 0
REMARK  Name = ../refined-set-2016/4omj/4omj_pocket.pdb
REMARK  327 active torsions:
REMARK  status: ('A' for Active; 'I' for Inactive)
REMARK    1  A    between atoms: _1  and  _3
REMARK    2  A    between atoms: _3  and  _4
REMARK    3  A    between atoms: _3  and  _6
REMARK    4  A    between atoms: _6  and  _7
REMARK    5  A    between atoms: _10  and  _12
REMARK    6  A    between atoms: _12  and  _13
REMARK    7  A    between atoms: _12  and  _15
REMARK    8  A    between atoms: _15  and  _16
REMARK    9  A    between atoms: _21  and  _22
REMARK   10  A    between atoms: _24  and  _26
REMARK   11  A    between atoms: _26  and  _27
REMARK   12  A    between atoms: _26  and  _29
REMARK   13  A    between atoms: _29  and  _30
REMARK   14  A    between atoms: _33  and  _35
REMARK   15  A    between atoms: _35  and  _36
REMARK   16  A    between atoms: _35  and  _38
REMARK   17  A    between atoms: _38  and  _39
REMARK   18  A    between atoms: _41  and  _43
REMARK   19  A    between atoms: _43  and  _44
REMARK   20  A    between atoms: _43  and  _46
REMARK   21  A    between atoms: _46  and  _47
REMARK   22  A    between atoms: _57  and  _59
REMARK   23  A    between atoms: _59  and  _60
REMARK   24  A    between atoms: _59  and  _62
REMARK   25  A    between atoms: _62  and  _63
REMARK   26  A    between atoms: _66  and  _68
REMARK   27  A    between atoms: _68  and  _69
REMARK   28  A    between atoms: _68  and  _71
REMARK   29  A    between atoms: _71  and  _72
REMARK   30  A    between atoms: _75  and  _77
REMARK   31  A    between atoms: _77  and  _78
REMARK   32  A    between atoms: _77  and  _80
REMARK   33  A    between atoms: _80  and  _81
REMARK   34  A    between atoms: _84  and  _86
REMARK   35  A    between atoms: _86  and  _87
REMARK   36  A    between atoms: _89  and  _91
REMARK   37  A    between atoms: _91  and  _92
REMARK   38  A    between atoms: _91  and  _94
REMARK   39  A    between atoms: _94  and  _95
REMARK   40  A    between atoms: _98  and  _100
REMARK   41  A    between atoms: _100  and  _101
REMARK   42  A    between atoms: _100  and  _103
REMARK   43  A    between atoms: _103  and  _104
REMARK   44  A    between atoms: _107  and  _109
REMARK   45  A    between atoms: _109  and  _110
REMARK   46  A    between atoms: _113  and  _115
REMARK   47  A    between atoms: _115  and  _116
REMARK   48  A    between atoms: _115  and  _118
REMARK   49  A    between atoms: _118  and  _119
REMARK   50  A    between atoms: _119  and  _120
REMARK   51  A    between atoms: _120  and  _121
REMARK   52  A    between atoms: _121  and  _122
REMARK   53  A    between atoms: _126  and  _128
REMARK   54  A    between atoms: _128  and  _129
REMARK   55  A    between atoms: _131  and  _133
REMARK   56  A    between atoms: _133  and  _134
REMARK   57  A    between atoms: _133  and  _136
REMARK   58  A    between atoms: _136  and  _137
REMARK   59  A    between atoms: _140  and  _142
REMARK   60  A    between atoms: _142  and  _143
REMARK   61  A    between atoms: _142  and  _145
REMARK   62  A    between atoms: _145  and  _146
REMARK   63  A    between atoms: _149  and  _151
REMARK   64  A    between atoms: _151  and  _152
REMARK   65  A    between atoms: _151  and  _154
REMARK   66  A    between atoms: _154  and  _155
REMARK   67  A    between atoms: _161  and  _163
REMARK   68  A    between atoms: _163  and  _164
REMARK   69  A    between atoms: _167  and  _169
REMARK   70  A    between atoms: _169  and  _170
REMARK   71  A    between atoms: _169  and  _172
REMARK   72  A    between atoms: _172  and  _173
REMARK   73  A    between atoms: _175  and  _177
REMARK   74  A    between atoms: _177  and  _178
REMARK   75  A    between atoms: _177  and  _180
REMARK   76  A    between atoms: _180  and  _181
REMARK   77  A    between atoms: _181  and  _182
REMARK   78  A    between atoms: _182  and  _183
REMARK   79  A    between atoms: _183  and  _184
REMARK   80  A    between atoms: _188  and  _190
REMARK   81  A    between atoms: _190  and  _191
REMARK   82  A    between atoms: _190  and  _193
REMARK   83  A    between atoms: _193  and  _194
REMARK   84  A    between atoms: _194  and  _195
REMARK   85  A    between atoms: _200  and  _202
REMARK   86  A    between atoms: _202  and  _203
REMARK   87  A    between atoms: _202  and  _205
REMARK   88  A    between atoms: _205  and  _206
REMARK   89  A    between atoms: _209  and  _211
REMARK   90  A    between atoms: _211  and  _212
REMARK   91  A    between atoms: _211  and  _214
REMARK   92  A    between atoms: _214  and  _215
REMARK   93  A    between atoms: _218  and  _220
REMARK   94  A    between atoms: _220  and  _221
REMARK   95  A    between atoms: _220  and  _223
REMARK   96  A    between atoms: _223  and  _224
REMARK   97  A    between atoms: _227  and  _229
REMARK   98  A    between atoms: _229  and  _230
REMARK   99  A    between atoms: _229  and  _232
REMARK  100  A    between atoms: _232  and  _233
REMARK  101  A    between atoms: _233  and  _234
REMARK  102  A    between atoms: _234  and  _235
REMARK  103  A    between atoms: _244  and  _246
REMARK  104  A    between atoms: _246  and  _247
REMARK  105  A    between atoms: _246  and  _249
REMARK  106  A    between atoms: _249  and  _250
REMARK  107  A    between atoms: _253  and  _255
REMARK  108  A    between atoms: _255  and  _256
REMARK  109  A    between atoms: _255  and  _258
REMARK  110  A    between atoms: _258  and  _259
REMARK  111  A    between atoms: _259  and  _260
REMARK  112  A    between atoms: _260  and  _261
REMARK  113  A    between atoms: _261  and  _262
REMARK  114  A    between atoms: _266  and  _268
REMARK  115  A    between atoms: _268  and  _269
REMARK  116  A    between atoms: _268  and  _271
REMARK  117  A    between atoms: _271  and  _272
REMARK  118  A    between atoms: _272  and  _273
REMARK  119  A    between atoms: _275  and  _277
REMARK  120  A    between atoms: _277  and  _278
REMARK  121  A    between atoms: _277  and  _280
REMARK  122  A    between atoms: _280  and  _281
REMARK  123  A    between atoms: _281  and  _282
REMARK  124  A    between atoms: _285  and  _287
REMARK  125  A    between atoms: _287  and  _288
REMARK  126  A    between atoms: _287  and  _290
REMARK  127  A    between atoms: _292  and  _294
REMARK  128  A    between atoms: _294  and  _295
REMARK  129  A    between atoms: _294  and  _297
REMARK  130  A    between atoms: _297  and  _298
REMARK  131  A    between atoms: _301  and  _303
REMARK  132  A    between atoms: _303  and  _304
REMARK  133  A    between atoms: _303  and  _306
REMARK  134  A    between atoms: _306  and  _307
REMARK  135  A    between atoms: _310  and  _312
REMARK  136  A    between atoms: _312  and  _313
REMARK  137  A    between atoms: _312  and  _315
REMARK  138  A    between atoms: _315  and  _316
REMARK  139  A    between atoms: _319  and  _321
REMARK  140  A    between atoms: _321  and  _322
REMARK  141  A    between atoms: _321  and  _324
REMARK  142  A    between atoms: _324  and  _325
REMARK  143  A    between atoms: _330  and  _331
REMARK  144  A    between atoms: _333  and  _335
REMARK  145  A    between atoms: _335  and  _336
REMARK  146  A    between atoms: _335  and  _338
REMARK  147  A    between atoms: _338  and  _339
REMARK  148  A    between atoms: _342  and  _344
REMARK  149  A    between atoms: _344  and  _345
REMARK  150  A    between atoms: _344  and  _347
REMARK  151  A    between atoms: _349  and  _351
REMARK  152  A    between atoms: _351  and  _352
REMARK  153  A    between atoms: _351  and  _354
REMARK  154  A    between atoms: _354  and  _355
REMARK  155  A    between atoms: _358  and  _360
REMARK  156  A    between atoms: _360  and  _361
REMARK  157  A    between atoms: _363  and  _365
REMARK  158  A    between atoms: _365  and  _366
REMARK  159  A    between atoms: _365  and  _368
REMARK  160  A    between atoms: _368  and  _369
REMARK  161  A    between atoms: _369  and  _370
REMARK  162  A    between atoms: _370  and  _371
REMARK  163  A    between atoms: _371  and  _372
REMARK  164  A    between atoms: _376  and  _378
REMARK  165  A    between atoms: _378  and  _379
REMARK  166  A    between atoms: _378  and  _381
REMARK  167  A    between atoms: _381  and  _382
REMARK  168  A    between atoms: _387  and  _389
REMARK  169  A    between atoms: _389  and  _390
REMARK  170  A    between atoms: _389  and  _392
REMARK  171  A    between atoms: _392  and  _393
REMARK  172  A    between atoms: _396  and  _398
REMARK  173  A    between atoms: _398  and  _399
REMARK  174  A    between atoms: _398  and  _401
REMARK  175  A    between atoms: _401  and  _402
REMARK  176  A    between atoms: _412  and  _414
REMARK  177  A    between atoms: _414  and  _415
REMARK  178  A    between atoms: _414  and  _417
REMARK  179  A    between atoms: _417  and  _418
REMARK  180  A    between atoms: _418  and  _419
REMARK  181  A    between atoms: _419  and  _420
REMARK  182  A    between atoms: _420  and  _421
REMARK  183  A    between atoms: _426  and  _427
REMARK  184  A    between atoms: _432  and  _434
REMARK  185  A    between atoms: _434  and  _435
REMARK  186  A    between atoms: _438  and  _440
REMARK  187  A    between atoms: _440  and  _441
REMARK  188  A    between atoms: _440  and  _443
REMARK  189  A    between atoms: _446  and  _448
REMARK  190  A    between atoms: _448  and  _449
REMARK  191  A    between atoms: _448  and  _451
REMARK  192  A    between atoms: _451  and  _452
REMARK  193  A    between atoms: _452  and  _453
REMARK  194  A    between atoms: _456  and  _458
REMARK  195  A    between atoms: _458  and  _459
REMARK  196  A    between atoms: _462  and  _464
REMARK  197  A    between atoms: _464  and  _465
REMARK  198  A    between atoms: _464  and  _467
REMARK  199  A    between atoms: _467  and  _468
REMARK  200  A    between atoms: _473  and  _474
REMARK  201  A    between atoms: _476  and  _478
REMARK  202  A    between atoms: _478  and  _479
REMARK  203  A    between atoms: _481  and  _483
REMARK  204  A    between atoms: _483  and  _484
REMARK  205  A    between atoms: _483  and  _486
REMARK  206  A    between atoms: _486  and  _487
REMARK  207  A    between atoms: _487  and  _488
REMARK  208  A    between atoms: _491  and  _493
REMARK  209  A    between atoms: _493  and  _494
REMARK  210  A    between atoms: _493  and  _496
REMARK  211  A    between atoms: _496  and  _497
REMARK  212  A    between atoms: _503  and  _505
REMARK  213  A    between atoms: _505  and  _506
REMARK  214  A    between atoms: _505  and  _508
REMARK  215  A    between atoms: _508  and  _509
REMARK  216  A    between atoms: _512  and  _514
REMARK  217  A    between atoms: _514  and  _515
REMARK  218  A    between atoms: _514  and  _517
REMARK  219  A    between atoms: _519  and  _521
REMARK  220  A    between atoms: _521  and  _522
REMARK  221  A    between atoms: _521  and  _524
REMARK  222  A    between atoms: _524  and  _525
REMARK  223  A    between atoms: _531  and  _533
REMARK  224  A    between atoms: _533  and  _534
REMARK  225  A    between atoms: _533  and  _536
REMARK  226  A    between atoms: _536  and  _537
REMARK  227  A    between atoms: _537  and  _538
REMARK  228  A    between atoms: _541  and  _543
REMARK  229  A    between atoms: _543  and  _544
REMARK  230  A    between atoms: _543  and  _546
REMARK  231  A    between atoms: _546  and  _547
REMARK  232  A    between atoms: _550  and  _552
REMARK  233  A    between atoms: _552  and  _553
REMARK  234  A    between atoms: _552  and  _555
REMARK  235  A    between atoms: _555  and  _556
REMARK  236  A    between atoms: _556  and  _557
REMARK  237  A    between atoms: _557  and  _558
REMARK  238  A    between atoms: _567  and  _569
REMARK  239  A    between atoms: _569  and  _570
REMARK  240  A    between atoms: _569  and  _572
REMARK  241  A    between atoms: _572  and  _573
REMARK  242  A    between atoms: _576  and  _578
REMARK  243  A    between atoms: _578  and  _579
REMARK  244  A    between atoms: _578  and  _581
REMARK  245  A    between atoms: _581  and  _582
REMARK  246  A    between atoms: _588  and  _590
REMARK  247  A    between atoms: _590  and  _591
REMARK  248  A    between atoms: _590  and  _593
REMARK  249  A    between atoms: _596  and  _598
REMARK  250  A    between atoms: _598  and  _599
REMARK  251  A    between atoms: _603  and  _604
REMARK  252  A    between atoms: _609  and  _611
REMARK  253  A    between atoms: _611  and  _612
REMARK  254  A    between atoms: _611  and  _614
REMARK  255  A    between atoms: _614  and  _615
REMARK  256  A    between atoms: _618  and  _620
REMARK  257  A    between atoms: _620  and  _621
REMARK  258  A    between atoms: _620  and  _623
REMARK  259  A    between atoms: _623  and  _624
REMARK  260  A    between atoms: _631  and  _632
REMARK  261  A    between atoms: _637  and  _639
REMARK  262  A    between atoms: _639  and  _640
REMARK  263  A    between atoms: _639  and  _642
REMARK  264  A    between atoms: _645  and  _647
REMARK  265  A    between atoms: _647  and  _648
REMARK  266  A    between atoms: _651  and  _653
REMARK  267  A    between atoms: _653  and  _654
REMARK  268  A    between atoms: _653  and  _656
REMARK  269  A    between atoms: _656  and  _657
REMARK  270  A    between atoms: _662  and  _663
REMARK  271  A    between atoms: _665  and  _667
REMARK  272  A    between atoms: _667  and  _668
REMARK  273  A    between atoms: _667  and  _670
REMARK  274  A    between atoms: _670  and  _671
REMARK  275  A    between atoms: _676  and  _678
REMARK  276  A    between atoms: _678  and  _679
REMARK  277  A    between atoms: _678  and  _681
REMARK  278  A    between atoms: _681  and  _682
REMARK  279  A    between atoms: _685  and  _687
REMARK  280  A    between atoms: _687  and  _688
REMARK  281  A    between atoms: _687  and  _690
REMARK  282  A    between atoms: _690  and  _691
REMARK  283  A    between atoms: _694  and  _696
REMARK  284  A    between atoms: _696  and  _697
REMARK  285  A    between atoms: _696  and  _699
REMARK  286  A    between atoms: _699  and  _700
REMARK  287  A    between atoms: _700  and  _701
REMARK  288  A    between atoms: _701  and  _702
REMARK  289  A    between atoms: _702  and  _703
REMARK  290  A    between atoms: _707  and  _709
REMARK  291  A    between atoms: _709  and  _710
REMARK  292  A    between atoms: _709  and  _712
REMARK  293  A    between atoms: _712  and  _713
REMARK  294  A    between atoms: _719  and  _721
REMARK  295  A    between atoms: _721  and  _722
REMARK  296  A    between atoms: _721  and  _724
REMARK  297  A    between atoms: _724  and  _725
REMARK  298  A    between atoms: _728  and  _730
REMARK  299  A    between atoms: _730  and  _731
REMARK  300  A    between atoms: _730  and  _733
REMARK  301  A    between atoms: _733  and  _734
REMARK  302  A    between atoms: _736  and  _738
REMARK  303  A    between atoms: _738  and  _739
REMARK  304  A    between atoms: _738  and  _741
REMARK  305  A    between atoms: _741  and  _742
REMARK  306  A    between atoms: _745  and  _747
REMARK  307  A    between atoms: _747  and  _748
REMARK  308  A    between atoms: _747  and  _750
REMARK  309  A    between atoms: _750  and  _751
REMARK  310  A    between atoms: _751  and  _752
REMARK  311  A    between atoms: _752  and  _753
REMARK  312  A    between atoms: _762  and  _764
REMARK  313  A    between atoms: _764  and  _765
REMARK  314  A    between atoms: _764  and  _767
REMARK  315  A    between atoms: _767  and  _768
REMARK  316  A    between atoms: _771  and  _773
REMARK  317  A    between atoms: _773  and  _774
REMARK  318  A    between atoms: _773  and  _776
REMARK  319  A    between atoms: _776  and  _777
REMARK  320  A    between atoms: _777  and  _778
REMARK  321  A    between atoms: _780  and  _782
REMARK  322  A    between atoms: _782  and  _783
REMARK  323  A    between atoms: _782  and  _785
REMARK  324  A    between atoms: _788  and  _790
REMARK  325  A    between atoms: _790  and  _791
REMARK  326  A    between atoms: _790  and  _793
REMARK  327  A    between atoms: _793  and  _794
REMARK                            x       y       z     vdW  Elec       q    Type
REMARK                         _______ _______ _______ _____ _____    ______ ____
ROOT
ATOM      1  O   HOH     1      86.667   7.853   1.945  0.00  0.00    +0.000 OA
ENDROOT
TORSDOF 0
REMARK  Name = ../refined-set-2016/4omj/4omj_pocket.pdb
REMARK  327 active torsions:
REMARK  status: ('A' for Active; 'I' for Inactive)
REMARK    1  A    between atoms: _1  and  _3
REMARK    2  A    between atoms: _3  and  _4
REMARK    3  A    between atoms: _3  and  _6
REMARK    4  A    between atoms: _6  and  _7
REMARK    5  A    between atoms: _10  and  _12
REMARK    6  A    between atoms: _12  and  _13
REMARK    7  A    between atoms: _12  and  _15
REMARK    8  A    between atoms: _15  and  _16
REMARK    9  A    between atoms: _21  and  _22
REMARK   10  A    between atoms: _24  and  _26
REMARK   11  A    between atoms: _26  and  _27
REMARK   12  A    between atoms: _26  and  _29
REMARK   13  A    between atoms: _29  and  _30
REMARK   14  A    between atoms: _33  and  _35
REMARK   15  A    between atoms: _35  and  _36
REMARK   16  A    between atoms: _35  and  _38
REMARK   17  A    between atoms: _38  and  _39
REMARK   18  A    between atoms: _41  and  _43
REMARK   19  A    between atoms: _43  and  _44
REMARK   20  A    between atoms: _43  and  _46
REMARK   21  A    between atoms: _46  and  _47
REMARK   22  A    between atoms: _57  and  _59
REMARK   23  A    between atoms: _59  and  _60
REMARK   24  A    between atoms: _59  and  _62
REMARK   25  A    between atoms: _62  and  _63
REMARK   26  A    between atoms: _66  and  _68
REMARK   27  A    between atoms: _68  and  _69
REMARK   28  A    between atoms: _68  and  _71
REMARK   29  A    between atoms: _71  and  _72
REMARK   30  A    between atoms: _75  and  _77
REMARK   31  A    between atoms: _77  and  _78
REMARK   32  A    between atoms: _77  and  _80
REMARK   33  A    between atoms: _80  and  _81
REMARK   34  A    between atoms: _84  and  _86
REMARK   35  A    between atoms: _86  and  _87
REMARK   36  A    between atoms: _89  and  _91
REMARK   37  A    between atoms: _91  and  _92
REMARK   38  A    between atoms: _91  and  _94
REMARK   39  A    between atoms: _94  and  _95
REMARK   40  A    between atoms: _98  and  _100
REMARK   41  A    between atoms: _100  and  _101
REMARK   42  A    between atoms: _100  and  _103
REMARK   43  A    between atoms: _103  and  _104
REMARK   44  A    between atoms: _107  and  _109
REMARK   45  A    between atoms: _109  and  _110
REMARK   46  A    between atoms: _113  and  _115
REMARK   47  A    between atoms: _115  and  _116
REMARK   48  A    between atoms: _115  and  _118
REMARK   49  A    between atoms: _118  and  _119
REMARK   50  A    between atoms: _119  and  _120
REMARK   51  A    between atoms: _120  and  _121
REMARK   52  A    between atoms: _121  and  _122
REMARK   53  A    between atoms: _126  and  _128
REMARK   54  A    between atoms: _128  and  _129
REMARK   55  A    between atoms: _131  and  _133
REMARK   56  A    between atoms: _133  and  _134
REMARK   57  A    between atoms: _133  and  _136
REMARK   58  A    between atoms: _136  and  _137
REMARK   59  A    between atoms: _140  and  _142
REMARK   60  A    between atoms: _142  and  _143
REMARK   61  A    between atoms: _142  and  _145
REMARK   62  A    between atoms: _145  and  _146
REMARK   63  A    between atoms: _149  and  _151
REMARK   64  A    between atoms: _151  and  _152
REMARK   65  A    between atoms: _151  and  _154
REMARK   66  A    between atoms: _154  and  _155
REMARK   67  A    between atoms: _161  and  _163
REMARK   68  A    between atoms: _163  and  _164
REMARK   69  A    between atoms: _167  and  _169
REMARK   70  A    between atoms: _169  and  _170
REMARK   71  A    between atoms: _169  and  _172
REMARK   72  A    between atoms: _172  and  _173
REMARK   73  A    between atoms: _175  and  _177
REMARK   74  A    between atoms: _177  and  _178
REMARK   75  A    between atoms: _177  and  _180
REMARK   76  A    between atoms: _180  and  _181
REMARK   77  A    between atoms: _181  and  _182
REMARK   78  A    between atoms: _182  and  _183
REMARK   79  A    between atoms: _183  and  _184
REMARK   80  A    between atoms: _188  and  _190
REMARK   81  A    between atoms: _190  and  _191
REMARK   82  A    between atoms: _190  and  _193
REMARK   83  A    between atoms: _193  and  _194
REMARK   84  A    between atoms: _194  and  _195
REMARK   85  A    between atoms: _200  and  _202
REMARK   86  A    between atoms: _202  and  _203
REMARK   87  A    between atoms: _202  and  _205
REMARK   88  A    between atoms: _205  and  _206
REMARK   89  A    between atoms: _209  and  _211
REMARK   90  A    between atoms: _211  and  _212
REMARK   91  A    between atoms: _211  and  _214
REMARK   92  A    between atoms: _214  and  _215
REMARK   93  A    between atoms: _218  and  _220
REMARK   94  A    between atoms: _220  and  _221
REMARK   95  A    between atoms: _220  and  _223
REMARK   96  A    between atoms: _223  and  _224
REMARK   97  A    between atoms: _227  and  _229
REMARK   98  A    between atoms: _229  and  _230
REMARK   99  A    between atoms: _229  and  _232
REMARK  100  A    between atoms: _232  and  _233
REMARK  101  A    between atoms: _233  and  _234
REMARK  102  A    between atoms: _234  and  _235
REMARK  103  A    between atoms: _244  and  _246
REMARK  104  A    between atoms: _246  and  _247
REMARK  105  A    between atoms: _246  and  _249
REMARK  106  A    between atoms: _249  and  _250
REMARK  107  A    between atoms: _253  and  _255
REMARK  108  A    between atoms: _255  and  _256
REMARK  109  A    between atoms: _255  and  _258
REMARK  110  A    between atoms: _258  and  _259
REMARK  111  A    between atoms: _259  and  _260
REMARK  112  A    between atoms: _260  and  _261
REMARK  113  A    between atoms: _261  and  _262
REMARK  114  A    between atoms: _266  and  _268
REMARK  115  A    between atoms: _268  and  _269
REMARK  116  A    between atoms: _268  and  _271
REMARK  117  A    between atoms: _271  and  _272
REMARK  118  A    between atoms: _272  and  _273
REMARK  119  A    between atoms: _275  and  _277
REMARK  120  A    between atoms: _277  and  _278
REMARK  121  A    between atoms: _277  and  _280
REMARK  122  A    between atoms: _280  and  _281
REMARK  123  A    between atoms: _281  and  _282
REMARK  124  A    between atoms: _285  and  _287
REMARK  125  A    between atoms: _287  and  _288
REMARK  126  A    between atoms: _287  and  _290
REMARK  127  A    between atoms: _292  and  _294
REMARK  128  A    between atoms: _294  and  _295
REMARK  129  A    between atoms: _294  and  _297
REMARK  130  A    between atoms: _297  and  _298
REMARK  131  A    between atoms: _301  and  _303
REMARK  132  A    between atoms: _303  and  _304
REMARK  133  A    between atoms: _303  and  _306
REMARK  134  A    between atoms: _306  and  _307
REMARK  135  A    between atoms: _310  and  _312
REMARK  136  A    between atoms: _312  and  _313
REMARK  137  A    between atoms: _312  and  _315
REMARK  138  A    between atoms: _315  and  _316
REMARK  139  A    between atoms: _319  and  _321
REMARK  140  A    between atoms: _321  and  _322
REMARK  141  A    between atoms: _321  and  _324
REMARK  142  A    between atoms: _324  and  _325
REMARK  143  A    between atoms: _330  and  _331
REMARK  144  A    between atoms: _333  and  _335
REMARK  145  A    between atoms: _335  and  _336
REMARK  146  A    between atoms: _335  and  _338
REMARK  147  A    between atoms: _338  and  _339
REMARK  148  A    between atoms: _342  and  _344
REMARK  149  A    between atoms: _344  and  _345
REMARK  150  A    between atoms: _344  and  _347
REMARK  151  A    between atoms: _349  and  _351
REMARK  152  A    between atoms: _351  and  _352
REMARK  153  A    between atoms: _351  and  _354
REMARK  154  A    between atoms: _354  and  _355
REMARK  155  A    between atoms: _358  and  _360
REMARK  156  A    between atoms: _360  and  _361
REMARK  157  A    between atoms: _363  and  _365
REMARK  158  A    between atoms: _365  and  _366
REMARK  159  A    between atoms: _365  and  _368
REMARK  160  A    between atoms: _368  and  _369
REMARK  161  A    between atoms: _369  and  _370
REMARK  162  A    between atoms: _370  and  _371
REMARK  163  A    between atoms: _371  and  _372
REMARK  164  A    between atoms: _376  and  _378
REMARK  165  A    between atoms: _378  and  _379
REMARK  166  A    between atoms: _378  and  _381
REMARK  167  A    between atoms: _381  and  _382
REMARK  168  A    between atoms: _387  and  _389
REMARK  169  A    between atoms: _389  and  _390
REMARK  170  A    between atoms: _389  and  _392
REMARK  171  A    between atoms: _392  and  _393
REMARK  172  A    between atoms: _396  and  _398
REMARK  173  A    between atoms: _398  and  _399
REMARK  174  A    between atoms: _398  and  _401
REMARK  175  A    between atoms: _401  and  _402
REMARK  176  A    between atoms: _412  and  _414
REMARK  177  A    between atoms: _414  and  _415
REMARK  178  A    between atoms: _414  and  _417
REMARK  179  A    between atoms: _417  and  _418
REMARK  180  A    between atoms: _418  and  _419
REMARK  181  A    between atoms: _419  and  _420
REMARK  182  A    between atoms: _420  and  _421
REMARK  183  A    between atoms: _426  and  _427
REMARK  184  A    between atoms: _432  and  _434
REMARK  185  A    between atoms: _434  and  _435
REMARK  186  A    between atoms: _438  and  _440
REMARK  187  A    between atoms: _440  and  _441
REMARK  188  A    between atoms: _440  and  _443
REMARK  189  A    between atoms: _446  and  _448
REMARK  190  A    between atoms: _448  and  _449
REMARK  191  A    between atoms: _448  and  _451
REMARK  192  A    between atoms: _451  and  _452
REMARK  193  A    between atoms: _452  and  _453
REMARK  194  A    between atoms: _456  and  _458
REMARK  195  A    between atoms: _458  and  _459
REMARK  196  A    between atoms: _462  and  _464
REMARK  197  A    between atoms: _464  and  _465
REMARK  198  A    between atoms: _464  and  _467
REMARK  199  A    between atoms: _467  and  _468
REMARK  200  A    between atoms: _473  and  _474
REMARK  201  A    between atoms: _476  and  _478
REMARK  202  A    between atoms: _478  and  _479
REMARK  203  A    between atoms: _481  and  _483
REMARK  204  A    between atoms: _483  and  _484
REMARK  205  A    between atoms: _483  and  _486
REMARK  206  A    between atoms: _486  and  _487
REMARK  207  A    between atoms: _487  and  _488
REMARK  208  A    between atoms: _491  and  _493
REMARK  209  A    between atoms: _493  and  _494
REMARK  210  A    between atoms: _493  and  _496
REMARK  211  A    between atoms: _496  and  _497
REMARK  212  A    between atoms: _503  and  _505
REMARK  213  A    between atoms: _505  and  _506
REMARK  214  A    between atoms: _505  and  _508
REMARK  215  A    between atoms: _508  and  _509
REMARK  216  A    between atoms: _512  and  _514
REMARK  217  A    between atoms: _514  and  _515
REMARK  218  A    between atoms: _514  and  _517
REMARK  219  A    between atoms: _519  and  _521
REMARK  220  A    between atoms: _521  and  _522
REMARK  221  A    between atoms: _521  and  _524
REMARK  222  A    between atoms: _524  and  _525
REMARK  223  A    between atoms: _531  and  _533
REMARK  224  A    between atoms: _533  and  _534
REMARK  225  A    between atoms: _533  and  _536
REMARK  226  A    between atoms: _536  and  _537
REMARK  227  A    between atoms: _537  and  _538
REMARK  228  A    between atoms: _541  and  _543
REMARK  229  A    between atoms: _543  and  _544
REMARK  230  A    between atoms: _543  and  _546
REMARK  231  A    between atoms: _546  and  _547
REMARK  232  A    between atoms: _550  and  _552
REMARK  233  A    between atoms: _552  and  _553
REMARK  234  A    between atoms: _552  and  _555
REMARK  235  A    between atoms: _555  and  _556
REMARK  236  A    between atoms: _556  and  _557
REMARK  237  A    between atoms: _557  and  _558
REMARK  238  A    between atoms: _567  and  _569
REMARK  239  A    between atoms: _569  and  _570
REMARK  240  A    between atoms: _569  and  _572
REMARK  241  A    between atoms: _572  and  _573
REMARK  242  A    between atoms: _576  and  _578
REMARK  243  A    between atoms: _578  and  _579
REMARK  244  A    between atoms: _578  and  _581
REMARK  245  A    between atoms: _581  and  _582
REMARK  246  A    between atoms: _588  and  _590
REMARK  247  A    between atoms: _590  and  _591
REMARK  248  A    between atoms: _590  and  _593
REMARK  249  A    between atoms: _596  and  _598
REMARK  250  A    between atoms: _598  and  _599
REMARK  251  A    between atoms: _603  and  _604
REMARK  252  A    between atoms: _609  and  _611
REMARK  253  A    between atoms: _611  and  _612
REMARK  254  A    between atoms: _611  and  _614
REMARK  255  A    between atoms: _614  and  _615
REMARK  256  A    between atoms: _618  and  _620
REMARK  257  A    between atoms: _620  and  _621
REMARK  258  A    between atoms: _620  and  _623
REMARK  259  A    between atoms: _623  and  _624
REMARK  260  A    between atoms: _631  and  _632
REMARK  261  A    between atoms: _637  and  _639
REMARK  262  A    between atoms: _639  and  _640
REMARK  263  A    between atoms: _639  and  _642
REMARK  264  A    between atoms: _645  and  _647
REMARK  265  A    between atoms: _647  and  _648
REMARK  266  A    between atoms: _651  and  _653
REMARK  267  A    between atoms: _653  and  _654
REMARK  268  A    between atoms: _653  and  _656
REMARK  269  A    between atoms: _656  and  _657
REMARK  270  A    between atoms: _662  and  _663
REMARK  271  A    between atoms: _665  and  _667
REMARK  272  A    between atoms: _667  and  _668
REMARK  273  A    between atoms: _667  and  _670
REMARK  274  A    between atoms: _670  and  _671
REMARK  275  A    between atoms: _676  and  _678
REMARK  276  A    between atoms: _678  and  _679
REMARK  277  A    between atoms: _678  and  _681
REMARK  278  A    between atoms: _681  and  _682
REMARK  279  A    between atoms: _685  and  _687
REMARK  280  A    between atoms: _687  and  _688
REMARK  281  A    between atoms: _687  and  _690
REMARK  282  A    between atoms: _690  and  _691
REMARK  283  A    between atoms: _694  and  _696
REMARK  284  A    between atoms: _696  and  _697
REMARK  285  A    between atoms: _696  and  _699
REMARK  286  A    between atoms: _699  and  _700
REMARK  287  A    between atoms: _700  and  _701
REMARK  288  A    between atoms: _701  and  _702
REMARK  289  A    between atoms: _702  and  _703
REMARK  290  A    between atoms: _707  and  _709
REMARK  291  A    between atoms: _709  and  _710
REMARK  292  A    between atoms: _709  and  _712
REMARK  293  A    between atoms: _712  and  _713
REMARK  294  A    between atoms: _719  and  _721
REMARK  295  A    between atoms: _721  and  _722
REMARK  296  A    between atoms: _721  and  _724
REMARK  297  A    between atoms: _724  and  _725
REMARK  298  A    between atoms: _728  and  _730
REMARK  299  A    between atoms: _730  and  _731
REMARK  300  A    between atoms: _730  and  _733
REMARK  301  A    between atoms: _733  and  _734
REMARK  302  A    between atoms: _736  and  _738
REMARK  303  A    between atoms: _738  and  _739
REMARK  304  A    between atoms: _738  and  _741
REMARK  305  A    between atoms: _741  and  _742
REMARK  306  A    between atoms: _745  and  _747
REMARK  307  A    between atoms: _747  and  _748
REMARK  308  A    between atoms: _747  and  _750
REMARK  309  A    between atoms: _750  and  _751
REMARK  310  A    between atoms: _751  and  _752
REMARK  311  A    between atoms: _752  and  _753
REMARK  312  A    between atoms: _762  and  _764
REMARK  313  A    between atoms: _764  and  _765
REMARK  314  A    between atoms: _764  and  _767
REMARK  315  A    between atoms: _767  and  _768
REMARK  316  A    between atoms: _771  and  _773
REMARK  317  A    between atoms: _773  and  _774
REMARK  318  A    between atoms: _773  and  _776
REMARK  319  A    between atoms: _776  and  _777
REMARK  320  A    between atoms: _777  and  _778
REMARK  321  A    between atoms: _780  and  _782
REMARK  322  A    between atoms: _782  and  _783
REMARK  323  A    between atoms: _782  and  _785
REMARK  324  A    between atoms: _788  and  _790
REMARK  325  A    between atoms: _790  and  _791
REMARK  326  A    between atoms: _790  and  _793
REMARK  327  A    between atoms: _793  and  _794
REMARK                            x       y       z     vdW  Elec       q    Type
REMARK                         _______ _______ _______ _____ _____    ______ ____
ROOT
ATOM      1  O   HOH     1      92.118  -4.439  15.064  0.00  0.00    +0.000 OA
ENDROOT
TORSDOF 0
