REMARK  Name = ../refined-set-2016/4xtw/4xtw_pocket.pdb
REMARK  235 active torsions:
REMARK  status: ('A' for Active; 'I' for Inactive)
REMARK    1  A    between atoms: _1  and  _3
REMARK    2  A    between atoms: _3  and  _4
REMARK    3  A    between atoms: _3  and  _6
REMARK    4  A    between atoms: _6  and  _7
REMARK    5  A    between atoms: _10  and  _12
REMARK    6  A    between atoms: _12  and  _13
REMARK    7  A    between atoms: _15  and  _17
REMARK    8  A    between atoms: _17  and  _18
REMARK    9  A    between atoms: _17  and  _20
REMARK   10  A    between atoms: _20  and  _21
REMARK   11  A    between atoms: _23  and  _25
REMARK   12  A    between atoms: _25  and  _26
REMARK   13  A    between atoms: _25  and  _28
REMARK   14  A    between atoms: _28  and  _29
REMARK   15  A    between atoms: _32  and  _34
REMARK   16  A    between atoms: _34  and  _35
REMARK   17  A    between atoms: _34  and  _37
REMARK   18  A    between atoms: _37  and  _38
REMARK   19  A    between atoms: _43  and  _45
REMARK   20  A    between atoms: _45  and  _46
REMARK   21  A    between atoms: _49  and  _51
REMARK   22  A    between atoms: _51  and  _52
REMARK   23  A    between atoms: _51  and  _54
REMARK   24  A    between atoms: _54  and  _55
REMARK   25  A    between atoms: _58  and  _60
REMARK   26  A    between atoms: _60  and  _61
REMARK   27  A    between atoms: _60  and  _63
REMARK   28  A    between atoms: _63  and  _64
REMARK   29  A    between atoms: _67  and  _69
REMARK   30  A    between atoms: _69  and  _70
REMARK   31  A    between atoms: _69  and  _72
REMARK   32  A    between atoms: _72  and  _73
REMARK   33  A    between atoms: _76  and  _78
REMARK   34  A    between atoms: _78  and  _79
REMARK   35  A    between atoms: _82  and  _84
REMARK   36  A    between atoms: _84  and  _85
REMARK   37  A    between atoms: _84  and  _87
REMARK   38  A    between atoms: _87  and  _88
REMARK   39  A    between atoms: _88  and  _89
REMARK   40  A    between atoms: _94  and  _96
REMARK   41  A    between atoms: _96  and  _97
REMARK   42  A    between atoms: _96  and  _99
REMARK   43  A    between atoms: _99  and  _100
REMARK   44  A    between atoms: _103  and  _105
REMARK   45  A    between atoms: _105  and  _106
REMARK   46  A    between atoms: _109  and  _111
REMARK   47  A    between atoms: _111  and  _112
REMARK   48  A    between atoms: _114  and  _116
REMARK   49  A    between atoms: _116  and  _117
REMARK   50  A    between atoms: _116  and  _119
REMARK   51  A    between atoms: _119  and  _120
REMARK   52  A    between atoms: _120  and  _121
REMARK   53  A    between atoms: _121  and  _122
REMARK   54  A    between atoms: _131  and  _133
REMARK   55  A    between atoms: _133  and  _134
REMARK   56  A    between atoms: _136  and  _138
REMARK   57  A    between atoms: _138  and  _139
REMARK   58  A    between atoms: _138  and  _141
REMARK   59  A    between atoms: _141  and  _142
REMARK   60  A    between atoms: _142  and  _143
REMARK   61  A    between atoms: _143  and  _144
REMARK   62  A    between atoms: _153  and  _155
REMARK   63  A    between atoms: _155  and  _156
REMARK   64  A    between atoms: _155  and  _158
REMARK   65  A    between atoms: _158  and  _159
REMARK   66  A    between atoms: _164  and  _166
REMARK   67  A    between atoms: _166  and  _167
REMARK   68  A    between atoms: _169  and  _171
REMARK   69  A    between atoms: _171  and  _172
REMARK   70  A    between atoms: _171  and  _174
REMARK   71  A    between atoms: _174  and  _175
REMARK   72  A    between atoms: _175  and  _176
REMARK   73  A    between atoms: _176  and  _177
REMARK   74  A    between atoms: _186  and  _188
REMARK   75  A    between atoms: _188  and  _189
REMARK   76  A    between atoms: _191  and  _193
REMARK   77  A    between atoms: _193  and  _194
REMARK   78  A    between atoms: _193  and  _196
REMARK   79  A    between atoms: _196  and  _197
REMARK   80  A    between atoms: _207  and  _209
REMARK   81  A    between atoms: _209  and  _210
REMARK   82  A    between atoms: _213  and  _215
REMARK   83  A    between atoms: _215  and  _216
REMARK   84  A    between atoms: _219  and  _221
REMARK   85  A    between atoms: _221  and  _222
REMARK   86  A    between atoms: _221  and  _224
REMARK   87  A    between atoms: _224  and  _225
REMARK   88  A    between atoms: _228  and  _230
REMARK   89  A    between atoms: _230  and  _231
REMARK   90  A    between atoms: _230  and  _233
REMARK   91  A    between atoms: _233  and  _234
REMARK   92  A    between atoms: _234  and  _235
REMARK   93  A    between atoms: _240  and  _242
REMARK   94  A    between atoms: _242  and  _243
REMARK   95  A    between atoms: _242  and  _245
REMARK   96  A    between atoms: _245  and  _246
REMARK   97  A    between atoms: _249  and  _251
REMARK   98  A    between atoms: _251  and  _252
REMARK   99  A    between atoms: _251  and  _254
REMARK  100  A    between atoms: _254  and  _255
REMARK  101  A    between atoms: _258  and  _260
REMARK  102  A    between atoms: _260  and  _261
REMARK  103  A    between atoms: _260  and  _263
REMARK  104  A    between atoms: _263  and  _264
REMARK  105  A    between atoms: _267  and  _269
REMARK  106  A    between atoms: _269  and  _270
REMARK  107  A    between atoms: _269  and  _272
REMARK  108  A    between atoms: _272  and  _273
REMARK  109  A    between atoms: _275  and  _277
REMARK  110  A    between atoms: _277  and  _278
REMARK  111  A    between atoms: _277  and  _280
REMARK  112  A    between atoms: _283  and  _285
REMARK  113  A    between atoms: _285  and  _286
REMARK  114  A    between atoms: _285  and  _288
REMARK  115  A    between atoms: _288  and  _289
REMARK  116  A    between atoms: _291  and  _293
REMARK  117  A    between atoms: _293  and  _294
REMARK  118  A    between atoms: _293  and  _296
REMARK  119  A    between atoms: _296  and  _297
REMARK  120  A    between atoms: _297  and  _298
REMARK  121  A    between atoms: _298  and  _299
REMARK  122  A    between atoms: _299  and  _300
REMARK  123  A    between atoms: _305  and  _306
REMARK  124  A    between atoms: _311  and  _313
REMARK  125  A    between atoms: _313  and  _314
REMARK  126  A    between atoms: _313  and  _316
REMARK  127  A    between atoms: _316  and  _317
REMARK  128  A    between atoms: _322  and  _324
REMARK  129  A    between atoms: _324  and  _325
REMARK  130  A    between atoms: _324  and  _327
REMARK  131  A    between atoms: _327  and  _328
REMARK  132  A    between atoms: _331  and  _333
REMARK  133  A    between atoms: _333  and  _334
REMARK  134  A    between atoms: _333  and  _336
REMARK  135  A    between atoms: _339  and  _341
REMARK  136  A    between atoms: _341  and  _342
REMARK  137  A    between atoms: _344  and  _346
REMARK  138  A    between atoms: _346  and  _347
REMARK  139  A    between atoms: _346  and  _349
REMARK  140  A    between atoms: _349  and  _350
REMARK  141  A    between atoms: _350  and  _351
REMARK  142  A    between atoms: _351  and  _352
REMARK  143  A    between atoms: _352  and  _353
REMARK  144  A    between atoms: _357  and  _359
REMARK  145  A    between atoms: _359  and  _360
REMARK  146  A    between atoms: _359  and  _362
REMARK  147  A    between atoms: _362  and  _363
REMARK  148  A    between atoms: _366  and  _368
REMARK  149  A    between atoms: _368  and  _369
REMARK  150  A    between atoms: _372  and  _374
REMARK  151  A    between atoms: _374  and  _375
REMARK  152  A    between atoms: _377  and  _379
REMARK  153  A    between atoms: _379  and  _380
REMARK  154  A    between atoms: _379  and  _382
REMARK  155  A    between atoms: _382  and  _383
REMARK  156  A    between atoms: _386  and  _388
REMARK  157  A    between atoms: _388  and  _389
REMARK  158  A    between atoms: _388  and  _391
REMARK  159  A    between atoms: _391  and  _392
REMARK  160  A    between atoms: _395  and  _397
REMARK  161  A    between atoms: _397  and  _398
REMARK  162  A    between atoms: _401  and  _403
REMARK  163  A    between atoms: _403  and  _404
REMARK  164  A    between atoms: _403  and  _406
REMARK  165  A    between atoms: _406  and  _407
REMARK  166  A    between atoms: _407  and  _408
REMARK  167  A    between atoms: _411  and  _413
REMARK  168  A    between atoms: _413  and  _414
REMARK  169  A    between atoms: _413  and  _416
REMARK  170  A    between atoms: _419  and  _421
REMARK  171  A    between atoms: _421  and  _422
REMARK  172  A    between atoms: _421  and  _424
REMARK  173  A    between atoms: _424  and  _425
REMARK  174  A    between atoms: _428  and  _430
REMARK  175  A    between atoms: _430  and  _431
REMARK  176  A    between atoms: _433  and  _435
REMARK  177  A    between atoms: _435  and  _436
REMARK  178  A    between atoms: _435  and  _438
REMARK  179  A    between atoms: _441  and  _443
REMARK  180  A    between atoms: _443  and  _444
REMARK  181  A    between atoms: _446  and  _448
REMARK  182  A    between atoms: _448  and  _449
REMARK  183  A    between atoms: _448  and  _451
REMARK  184  A    between atoms: _451  and  _452
REMARK  185  A    between atoms: _455  and  _457
REMARK  186  A    between atoms: _457  and  _458
REMARK  187  A    between atoms: _457  and  _460
REMARK  188  A    between atoms: _460  and  _461
REMARK  189  A    between atoms: _466  and  _468
REMARK  190  A    between atoms: _468  and  _469
REMARK  191  A    between atoms: _468  and  _471
REMARK  192  A    between atoms: _474  and  _476
REMARK  193  A    between atoms: _476  and  _477
REMARK  194  A    between atoms: _476  and  _479
REMARK  195  A    between atoms: _479  and  _480
REMARK  196  A    between atoms: _480  and  _481
REMARK  197  A    between atoms: _486  and  _488
REMARK  198  A    between atoms: _488  and  _489
REMARK  199  A    between atoms: _493  and  _494
REMARK  200  A    between atoms: _499  and  _501
REMARK  201  A    between atoms: _501  and  _502
REMARK  202  A    between atoms: _501  and  _504
REMARK  203  A    between atoms: _504  and  _505
REMARK  204  A    between atoms: _505  and  _506
REMARK  205  A    between atoms: _509  and  _511
REMARK  206  A    between atoms: _511  and  _512
REMARK  207  A    between atoms: _511  and  _514
REMARK  208  A    between atoms: _517  and  _519
REMARK  209  A    between atoms: _519  and  _520
REMARK  210  A    between atoms: _519  and  _522
REMARK  211  A    between atoms: _522  and  _523
REMARK  212  A    between atoms: _527  and  _528
REMARK  213  A    between atoms: _533  and  _535
REMARK  214  A    between atoms: _535  and  _536
REMARK  215  A    between atoms: _535  and  _538
REMARK  216  A    between atoms: _538  and  _539
REMARK  217  A    between atoms: _542  and  _544
REMARK  218  A    between atoms: _544  and  _545
REMARK  219  A    between atoms: _548  and  _550
REMARK  220  A    between atoms: _550  and  _551
REMARK  221  A    between atoms: _550  and  _553
REMARK  222  A    between atoms: _553  and  _554
REMARK  223  A    between atoms: _557  and  _559
REMARK  224  A    between atoms: _559  and  _560
REMARK  225  A    between atoms: _559  and  _562
REMARK  226  A    between atoms: _562  and  _563
REMARK  227  A    between atoms: _565  and  _567
REMARK  228  A    between atoms: _567  and  _568
REMARK  229  A    between atoms: _570  and  _572
REMARK  230  A    between atoms: _572  and  _573
REMARK  231  A    between atoms: _572  and  _575
REMARK  232  A    between atoms: _575  and  _576
REMARK  233  A    between atoms: _579  and  _581
REMARK  234  A    between atoms: _581  and  _582
REMARK  235  A    between atoms: _581  and  _584
REMARK                            x       y       z     vdW  Elec       q    Type
REMARK                         _______ _______ _______ _____ _____    ______ ____
ROOT
ATOM      1  C   THR A   4       1.641 -13.483  17.598  0.00  0.00    +0.243 C 
ATOM      2  O   THR A   4       1.869 -14.667  17.836  0.00  0.00    -0.273 OA
ATOM      3  N   ASN A   5       1.557 -12.998  16.363  0.00  0.00    -0.297 N 
ATOM      4  H   ASN A   5       1.276 -12.007  16.218  0.00  0.00    +0.150 HD
ENDROOT
BRANCH   3   5
ATOM      5  CA  ASN A   5       1.853 -13.837  15.210  0.00  0.00    +0.158 C 
BRANCH   5   6
ATOM      6  C   ASN A   5       3.317 -14.252  15.197  0.00  0.00    +0.241 C 
ATOM      7  N   ALA A   6       4.202 -13.288  15.428  0.00  0.00    -0.297 N 
ATOM      8  H   ALA A   6       3.862 -12.322  15.606  0.00  0.00    +0.150 HD
ATOM      9  O   ASN A   5       3.636 -15.422  14.991  0.00  0.00    -0.273 OA
BRANCH   7  10
ATOM     10  CA  ALA A   6       5.637 -13.547  15.439  0.00  0.00    +0.149 C 
ATOM     11  CB  ALA A   6       6.411 -12.248  15.629  0.00  0.00    +0.031 C 
BRANCH  10  12
ATOM     12  C   ALA A   6       6.007 -14.553  16.526  0.00  0.00    +0.241 C 
ATOM     13  N   ASP A   7       5.328 -14.464  17.667  0.00  0.00    -0.297 N 
ATOM     14  H   ASP A   7       4.587 -13.740  17.762  0.00  0.00    +0.150 HD
ATOM     15  O   ALA A   6       6.882 -15.396  16.329  0.00  0.00    -0.273 OA
BRANCH  13  16
ATOM     16  CA  ASP A   7       5.598 -15.358  18.788  0.00  0.00    +0.160 C 
BRANCH  16  17
ATOM     17  C   ASP A   7       5.265 -16.809  18.452  0.00  0.00    +0.241 C 
ATOM     18  O   ASP A   7       6.072 -17.706  18.693  0.00  0.00    -0.273 OA
ATOM     19  N   LEU A   8       4.079 -17.040  17.896  0.00  0.00    -0.298 N 
ATOM     20  H   LEU A   8       3.438 -16.243  17.708  0.00  0.00    +0.150 HD
BRANCH  19  21
ATOM     21  CA  LEU A   8       3.664 -18.396  17.546  0.00  0.00    +0.137 C 
BRANCH  21  22
ATOM     22  C   LEU A   8       4.485 -18.946  16.387  0.00  0.00    +0.227 C 
ATOM     23  O   LEU A   8       4.675 -20.157  16.273  0.00  0.00    -0.286 OA
ENDBRANCH  21  22
BRANCH  21  24
ATOM     24  CB  LEU A   8       2.174 -18.440  17.201  0.00  0.00    +0.028 C 
BRANCH  24  25
ATOM     25  CG  LEU A   8       1.207 -18.424  18.388  0.00  0.00    +0.002 C 
ATOM     26  CD2 LEU A   8       1.707 -19.325  19.509  0.00  0.00    +0.000 C 
ATOM     27  CD1 LEU A   8      -0.193 -18.834  17.948  0.00  0.00    +0.000 C 
ENDBRANCH  24  25
ENDBRANCH  21  24
ENDBRANCH  19  21
ENDBRANCH  16  17
BRANCH  16  28
ATOM     28  CB  ASP A   7       4.818 -14.917  20.027  0.00  0.00    +0.143 C 
BRANCH  28  29
ATOM     29  CG  ASP A   7       5.329 -13.613  20.606  0.00  0.00    +0.367 C 
ATOM     30  OD2 ASP A   7       4.681 -13.079  21.531  0.00  0.00    -0.246 OA
ATOM     31  OD1 ASP A   7       6.381 -13.124  20.144  0.00  0.00    -0.246 OA
ENDBRANCH  28  29
ENDBRANCH  16  28
ENDBRANCH  13  16
ENDBRANCH  10  12
ENDBRANCH   7  10
ENDBRANCH   5   6
BRANCH   5  32
ATOM     32  CB  ASN A   5       1.502 -13.119  13.907  0.00  0.00    +0.114 C 
BRANCH  32  33
ATOM     33  CG  ASN A   5       0.154 -13.538  13.361  0.00  0.00    +0.222 C 
ATOM     34  OD1 ASN A   5      -0.767 -13.836  14.119  0.00  0.00    -0.275 OA
ATOM     35  ND2 ASN A   5       0.035 -13.576  12.040  0.00  0.00    -0.329 N 
ATOM     36 HD21 ASN A   5      -0.865 -13.867  11.607  0.00  0.00    +0.145 HD
ATOM     37 HD22 ASN A   5       0.842 -13.315  11.438  0.00  0.00    +0.145 HD
ENDBRANCH  32  33
ENDBRANCH   5  32
ENDBRANCH   3   5
BRANCH   1  38
ATOM     38  CA  THR A   4       1.431 -12.491  18.734  0.00  0.00    +0.176 C 
BRANCH  38  40
ATOM     39  C   SER A   3       3.151 -10.913  18.044  0.00  0.00    +0.243 C 
ATOM     40  N   THR A   4       1.878 -11.152  18.355  0.00  0.00    -0.295 N 
ATOM     41  H   THR A   4       1.190 -10.372  18.328  0.00  0.00    +0.150 HD
ATOM     42  O   SER A   3       4.011 -11.795  18.023  0.00  0.00    -0.273 OA
BRANCH  39  43
ATOM     43  CA  SER A   3       3.520  -9.472  17.713  0.00  0.00    +0.178 C 
BRANCH  43  45
ATOM     44  C   GLY A   2       4.723  -7.701  18.885  0.00  0.00    +0.243 C 
ATOM     45  N   SER A   3       4.529  -8.994  18.650  0.00  0.00    -0.295 N 
ATOM     46  H   SER A   3       5.117  -9.689  19.152  0.00  0.00    +0.150 HD
ATOM     47  O   GLY A   2       4.070  -6.813  18.339  0.00  0.00    -0.273 OA
BRANCH  44  48
ATOM     48  CA  GLY A   2       5.808  -7.366  19.890  0.00  0.00    +0.176 C 
BRANCH  48  51
ATOM     49  C   THR A   1       4.598  -7.745  21.956  0.00  0.00    +0.241 C 
ATOM     50  O   THR A   1       3.835  -6.804  21.736  0.00  0.00    -0.274 OA
ATOM     51  N   GLY A   2       5.596  -8.069  21.141  0.00  0.00    -0.295 N 
ATOM     52  H   GLY A   2       6.239  -8.843  21.405  0.00  0.00    +0.150 HD
BRANCH  49  53
ATOM     53  CA  THR A   1       4.433  -8.602  23.206  0.00  0.00    +0.172 C 
BRANCH  53  54
ATOM     54  N   THR A   1       3.475  -7.977  24.109  0.00  0.00    -0.236 NA
ATOM     55  H   THR A   1       2.785  -7.303  23.720  0.00  0.00    +0.142 HD
ENDBRANCH  53  54
BRANCH  53  56
ATOM     56  CB  THR A   1       3.999 -10.021  22.796  0.00  0.00    +0.135 C 
ATOM     57  CG2 THR A   1       2.760  -9.966  21.914  0.00  0.00    +0.034 C 
BRANCH  56  58
ATOM     58  OG1 THR A   1       5.063 -10.660  22.080  0.00  0.00    -0.383 OA
ATOM     59  HG1 THR A   1       4.781 -11.572  21.818  0.00  0.00    +0.210 HD
ENDBRANCH  56  58
ENDBRANCH  53  56
ENDBRANCH  49  53
ENDBRANCH  48  51
ENDBRANCH  44  48
ENDBRANCH  43  45
BRANCH  43  60
ATOM     60  CB  SER A   3       4.029  -9.367  16.272  0.00  0.00    +0.166 C 
BRANCH  60  61
ATOM     61  OG  SER A   3       3.190 -10.075  15.375  0.00  0.00    -0.380 OA
ATOM     62  H   SER A   3       2.275  -9.699  15.414  0.00  0.00    +0.211 HD
ENDBRANCH  60  61
ENDBRANCH  43  60
ENDBRANCH  39  43
ENDBRANCH  38  40
BRANCH  38  63
ATOM     63  CB  THR A   4      -0.055 -12.515  19.146  0.00  0.00    +0.137 C 
ATOM     64  CG2 THR A   4      -0.296 -11.615  20.341  0.00  0.00    +0.034 C 
BRANCH  63  65
ATOM     65  OG1 THR A   4      -0.869 -12.082  18.050  0.00  0.00    -0.382 OA
ATOM     66  HG1 THR A   4      -0.732 -12.688  17.279  0.00  0.00    +0.210 HD
ENDBRANCH  63  65
ENDBRANCH  38  63
ENDBRANCH   1  38
TORSDOF 28
REMARK  Name = ../refined-set-2016/4xtw/4xtw_pocket.pdb
REMARK  235 active torsions:
REMARK  status: ('A' for Active; 'I' for Inactive)
REMARK    1  A    between atoms: _1  and  _3
REMARK    2  A    between atoms: _3  and  _4
REMARK    3  A    between atoms: _3  and  _6
REMARK    4  A    between atoms: _6  and  _7
REMARK    5  A    between atoms: _10  and  _12
REMARK    6  A    between atoms: _12  and  _13
REMARK    7  A    between atoms: _15  and  _17
REMARK    8  A    between atoms: _17  and  _18
REMARK    9  A    between atoms: _17  and  _20
REMARK   10  A    between atoms: _20  and  _21
REMARK   11  A    between atoms: _23  and  _25
REMARK   12  A    between atoms: _25  and  _26
REMARK   13  A    between atoms: _25  and  _28
REMARK   14  A    between atoms: _28  and  _29
REMARK   15  A    between atoms: _32  and  _34
REMARK   16  A    between atoms: _34  and  _35
REMARK   17  A    between atoms: _34  and  _37
REMARK   18  A    between atoms: _37  and  _38
REMARK   19  A    between atoms: _43  and  _45
REMARK   20  A    between atoms: _45  and  _46
REMARK   21  A    between atoms: _49  and  _51
REMARK   22  A    between atoms: _51  and  _52
REMARK   23  A    between atoms: _51  and  _54
REMARK   24  A    between atoms: _54  and  _55
REMARK   25  A    between atoms: _58  and  _60
REMARK   26  A    between atoms: _60  and  _61
REMARK   27  A    between atoms: _60  and  _63
REMARK   28  A    between atoms: _63  and  _64
REMARK   29  A    between atoms: _67  and  _69
REMARK   30  A    between atoms: _69  and  _70
REMARK   31  A    between atoms: _69  and  _72
REMARK   32  A    between atoms: _72  and  _73
REMARK   33  A    between atoms: _76  and  _78
REMARK   34  A    between atoms: _78  and  _79
REMARK   35  A    between atoms: _82  and  _84
REMARK   36  A    between atoms: _84  and  _85
REMARK   37  A    between atoms: _84  and  _87
REMARK   38  A    between atoms: _87  and  _88
REMARK   39  A    between atoms: _88  and  _89
REMARK   40  A    between atoms: _94  and  _96
REMARK   41  A    between atoms: _96  and  _97
REMARK   42  A    between atoms: _96  and  _99
REMARK   43  A    between atoms: _99  and  _100
REMARK   44  A    between atoms: _103  and  _105
REMARK   45  A    between atoms: _105  and  _106
REMARK   46  A    between atoms: _109  and  _111
REMARK   47  A    between atoms: _111  and  _112
REMARK   48  A    between atoms: _114  and  _116
REMARK   49  A    between atoms: _116  and  _117
REMARK   50  A    between atoms: _116  and  _119
REMARK   51  A    between atoms: _119  and  _120
REMARK   52  A    between atoms: _120  and  _121
REMARK   53  A    between atoms: _121  and  _122
REMARK   54  A    between atoms: _131  and  _133
REMARK   55  A    between atoms: _133  and  _134
REMARK   56  A    between atoms: _136  and  _138
REMARK   57  A    between atoms: _138  and  _139
REMARK   58  A    between atoms: _138  and  _141
REMARK   59  A    between atoms: _141  and  _142
REMARK   60  A    between atoms: _142  and  _143
REMARK   61  A    between atoms: _143  and  _144
REMARK   62  A    between atoms: _153  and  _155
REMARK   63  A    between atoms: _155  and  _156
REMARK   64  A    between atoms: _155  and  _158
REMARK   65  A    between atoms: _158  and  _159
REMARK   66  A    between atoms: _164  and  _166
REMARK   67  A    between atoms: _166  and  _167
REMARK   68  A    between atoms: _169  and  _171
REMARK   69  A    between atoms: _171  and  _172
REMARK   70  A    between atoms: _171  and  _174
REMARK   71  A    between atoms: _174  and  _175
REMARK   72  A    between atoms: _175  and  _176
REMARK   73  A    between atoms: _176  and  _177
REMARK   74  A    between atoms: _186  and  _188
REMARK   75  A    between atoms: _188  and  _189
REMARK   76  A    between atoms: _191  and  _193
REMARK   77  A    between atoms: _193  and  _194
REMARK   78  A    between atoms: _193  and  _196
REMARK   79  A    between atoms: _196  and  _197
REMARK   80  A    between atoms: _207  and  _209
REMARK   81  A    between atoms: _209  and  _210
REMARK   82  A    between atoms: _213  and  _215
REMARK   83  A    between atoms: _215  and  _216
REMARK   84  A    between atoms: _219  and  _221
REMARK   85  A    between atoms: _221  and  _222
REMARK   86  A    between atoms: _221  and  _224
REMARK   87  A    between atoms: _224  and  _225
REMARK   88  A    between atoms: _228  and  _230
REMARK   89  A    between atoms: _230  and  _231
REMARK   90  A    between atoms: _230  and  _233
REMARK   91  A    between atoms: _233  and  _234
REMARK   92  A    between atoms: _234  and  _235
REMARK   93  A    between atoms: _240  and  _242
REMARK   94  A    between atoms: _242  and  _243
REMARK   95  A    between atoms: _242  and  _245
REMARK   96  A    between atoms: _245  and  _246
REMARK   97  A    between atoms: _249  and  _251
REMARK   98  A    between atoms: _251  and  _252
REMARK   99  A    between atoms: _251  and  _254
REMARK  100  A    between atoms: _254  and  _255
REMARK  101  A    between atoms: _258  and  _260
REMARK  102  A    between atoms: _260  and  _261
REMARK  103  A    between atoms: _260  and  _263
REMARK  104  A    between atoms: _263  and  _264
REMARK  105  A    between atoms: _267  and  _269
REMARK  106  A    between atoms: _269  and  _270
REMARK  107  A    between atoms: _269  and  _272
REMARK  108  A    between atoms: _272  and  _273
REMARK  109  A    between atoms: _275  and  _277
REMARK  110  A    between atoms: _277  and  _278
REMARK  111  A    between atoms: _277  and  _280
REMARK  112  A    between atoms: _283  and  _285
REMARK  113  A    between atoms: _285  and  _286
REMARK  114  A    between atoms: _285  and  _288
REMARK  115  A    between atoms: _288  and  _289
REMARK  116  A    between atoms: _291  and  _293
REMARK  117  A    between atoms: _293  and  _294
REMARK  118  A    between atoms: _293  and  _296
REMARK  119  A    between atoms: _296  and  _297
REMARK  120  A    between atoms: _297  and  _298
REMARK  121  A    between atoms: _298  and  _299
REMARK  122  A    between atoms: _299  and  _300
REMARK  123  A    between atoms: _305  and  _306
REMARK  124  A    between atoms: _311  and  _313
REMARK  125  A    between atoms: _313  and  _314
REMARK  126  A    between atoms: _313  and  _316
REMARK  127  A    between atoms: _316  and  _317
REMARK  128  A    between atoms: _322  and  _324
REMARK  129  A    between atoms: _324  and  _325
REMARK  130  A    between atoms: _324  and  _327
REMARK  131  A    between atoms: _327  and  _328
REMARK  132  A    between atoms: _331  and  _333
REMARK  133  A    between atoms: _333  and  _334
REMARK  134  A    between atoms: _333  and  _336
REMARK  135  A    between atoms: _339  and  _341
REMARK  136  A    between atoms: _341  and  _342
REMARK  137  A    between atoms: _344  and  _346
REMARK  138  A    between atoms: _346  and  _347
REMARK  139  A    between atoms: _346  and  _349
REMARK  140  A    between atoms: _349  and  _350
REMARK  141  A    between atoms: _350  and  _351
REMARK  142  A    between atoms: _351  and  _352
REMARK  143  A    between atoms: _352  and  _353
REMARK  144  A    between atoms: _357  and  _359
REMARK  145  A    between atoms: _359  and  _360
REMARK  146  A    between atoms: _359  and  _362
REMARK  147  A    between atoms: _362  and  _363
REMARK  148  A    between atoms: _366  and  _368
REMARK  149  A    between atoms: _368  and  _369
REMARK  150  A    between atoms: _372  and  _374
REMARK  151  A    between atoms: _374  and  _375
REMARK  152  A    between atoms: _377  and  _379
REMARK  153  A    between atoms: _379  and  _380
REMARK  154  A    between atoms: _379  and  _382
REMARK  155  A    between atoms: _382  and  _383
REMARK  156  A    between atoms: _386  and  _388
REMARK  157  A    between atoms: _388  and  _389
REMARK  158  A    between atoms: _388  and  _391
REMARK  159  A    between atoms: _391  and  _392
REMARK  160  A    between atoms: _395  and  _397
REMARK  161  A    between atoms: _397  and  _398
REMARK  162  A    between atoms: _401  and  _403
REMARK  163  A    between atoms: _403  and  _404
REMARK  164  A    between atoms: _403  and  _406
REMARK  165  A    between atoms: _406  and  _407
REMARK  166  A    between atoms: _407  and  _408
REMARK  167  A    between atoms: _411  and  _413
REMARK  168  A    between atoms: _413  and  _414
REMARK  169  A    between atoms: _413  and  _416
REMARK  170  A    between atoms: _419  and  _421
REMARK  171  A    between atoms: _421  and  _422
REMARK  172  A    between atoms: _421  and  _424
REMARK  173  A    between atoms: _424  and  _425
REMARK  174  A    between atoms: _428  and  _430
REMARK  175  A    between atoms: _430  and  _431
REMARK  176  A    between atoms: _433  and  _435
REMARK  177  A    between atoms: _435  and  _436
REMARK  178  A    between atoms: _435  and  _438
REMARK  179  A    between atoms: _441  and  _443
REMARK  180  A    between atoms: _443  and  _444
REMARK  181  A    between atoms: _446  and  _448
REMARK  182  A    between atoms: _448  and  _449
REMARK  183  A    between atoms: _448  and  _451
REMARK  184  A    between atoms: _451  and  _452
REMARK  185  A    between atoms: _455  and  _457
REMARK  186  A    between atoms: _457  and  _458
REMARK  187  A    between atoms: _457  and  _460
REMARK  188  A    between atoms: _460  and  _461
REMARK  189  A    between atoms: _466  and  _468
REMARK  190  A    between atoms: _468  and  _469
REMARK  191  A    between atoms: _468  and  _471
REMARK  192  A    between atoms: _474  and  _476
REMARK  193  A    between atoms: _476  and  _477
REMARK  194  A    between atoms: _476  and  _479
REMARK  195  A    between atoms: _479  and  _480
REMARK  196  A    between atoms: _480  and  _481
REMARK  197  A    between atoms: _486  and  _488
REMARK  198  A    between atoms: _488  and  _489
REMARK  199  A    between atoms: _493  and  _494
REMARK  200  A    between atoms: _499  and  _501
REMARK  201  A    between atoms: _501  and  _502
REMARK  202  A    between atoms: _501  and  _504
REMARK  203  A    between atoms: _504  and  _505
REMARK  204  A    between atoms: _505  and  _506
REMARK  205  A    between atoms: _509  and  _511
REMARK  206  A    between atoms: _511  and  _512
REMARK  207  A    between atoms: _511  and  _514
REMARK  208  A    between atoms: _517  and  _519
REMARK  209  A    between atoms: _519  and  _520
REMARK  210  A    between atoms: _519  and  _522
REMARK  211  A    between atoms: _522  and  _523
REMARK  212  A    between atoms: _527  and  _528
REMARK  213  A    between atoms: _533  and  _535
REMARK  214  A    between atoms: _535  and  _536
REMARK  215  A    between atoms: _535  and  _538
REMARK  216  A    between atoms: _538  and  _539
REMARK  217  A    between atoms: _542  and  _544
REMARK  218  A    between atoms: _544  and  _545
REMARK  219  A    between atoms: _548  and  _550
REMARK  220  A    between atoms: _550  and  _551
REMARK  221  A    between atoms: _550  and  _553
REMARK  222  A    between atoms: _553  and  _554
REMARK  223  A    between atoms: _557  and  _559
REMARK  224  A    between atoms: _559  and  _560
REMARK  225  A    between atoms: _559  and  _562
REMARK  226  A    between atoms: _562  and  _563
REMARK  227  A    between atoms: _565  and  _567
REMARK  228  A    between atoms: _567  and  _568
REMARK  229  A    between atoms: _570  and  _572
REMARK  230  A    between atoms: _572  and  _573
REMARK  231  A    between atoms: _572  and  _575
REMARK  232  A    between atoms: _575  and  _576
REMARK  233  A    between atoms: _579  and  _581
REMARK  234  A    between atoms: _581  and  _582
REMARK  235  A    between atoms: _581  and  _584
REMARK                            x       y       z     vdW  Elec       q    Type
REMARK                         _______ _______ _______ _____ _____    ______ ____
ROOT
ATOM      1  CA  LEU A   1      -1.969 -16.689  22.374  0.00  0.00    +0.133 C 
ENDROOT
BRANCH   1   2
ATOM      2  N   LEU A   1      -2.714 -17.727  21.672  0.00  0.00    -0.239 NA
ATOM      3  H   LEU A   1      -2.888 -17.627  20.651  0.00  0.00    +0.142 HD
ENDBRANCH   1   2
BRANCH   1   4
ATOM      4  C   LEU A   1      -2.697 -15.353  22.290  0.00  0.00    +0.224 C 
ATOM      5  O   LEU A   1      -2.958 -14.852  21.201  0.00  0.00    -0.287 OA
ENDBRANCH   1   4
BRANCH   1   6
ATOM      6  CB  LEU A   1      -0.556 -16.550  21.804  0.00  0.00    +0.025 C 
BRANCH   6   7
ATOM      7  CG  LEU A   1       0.274 -15.422  22.425  0.00  0.00    +0.002 C 
ATOM      8  CD2 LEU A   1       0.508 -15.674  23.908  0.00  0.00    +0.000 C 
ATOM      9  CD1 LEU A   1       1.596 -15.241  21.690  0.00  0.00    +0.000 C 
ENDBRANCH   6   7
ENDBRANCH   1   6
TORSDOF 4
REMARK  Name = ../refined-set-2016/4xtw/4xtw_pocket.pdb
REMARK  235 active torsions:
REMARK  status: ('A' for Active; 'I' for Inactive)
REMARK    1  A    between atoms: _1  and  _3
REMARK    2  A    between atoms: _3  and  _4
REMARK    3  A    between atoms: _3  and  _6
REMARK    4  A    between atoms: _6  and  _7
REMARK    5  A    between atoms: _10  and  _12
REMARK    6  A    between atoms: _12  and  _13
REMARK    7  A    between atoms: _15  and  _17
REMARK    8  A    between atoms: _17  and  _18
REMARK    9  A    between atoms: _17  and  _20
REMARK   10  A    between atoms: _20  and  _21
REMARK   11  A    between atoms: _23  and  _25
REMARK   12  A    between atoms: _25  and  _26
REMARK   13  A    between atoms: _25  and  _28
REMARK   14  A    between atoms: _28  and  _29
REMARK   15  A    between atoms: _32  and  _34
REMARK   16  A    between atoms: _34  and  _35
REMARK   17  A    between atoms: _34  and  _37
REMARK   18  A    between atoms: _37  and  _38
REMARK   19  A    between atoms: _43  and  _45
REMARK   20  A    between atoms: _45  and  _46
REMARK   21  A    between atoms: _49  and  _51
REMARK   22  A    between atoms: _51  and  _52
REMARK   23  A    between atoms: _51  and  _54
REMARK   24  A    between atoms: _54  and  _55
REMARK   25  A    between atoms: _58  and  _60
REMARK   26  A    between atoms: _60  and  _61
REMARK   27  A    between atoms: _60  and  _63
REMARK   28  A    between atoms: _63  and  _64
REMARK   29  A    between atoms: _67  and  _69
REMARK   30  A    between atoms: _69  and  _70
REMARK   31  A    between atoms: _69  and  _72
REMARK   32  A    between atoms: _72  and  _73
REMARK   33  A    between atoms: _76  and  _78
REMARK   34  A    between atoms: _78  and  _79
REMARK   35  A    between atoms: _82  and  _84
REMARK   36  A    between atoms: _84  and  _85
REMARK   37  A    between atoms: _84  and  _87
REMARK   38  A    between atoms: _87  and  _88
REMARK   39  A    between atoms: _88  and  _89
REMARK   40  A    between atoms: _94  and  _96
REMARK   41  A    between atoms: _96  and  _97
REMARK   42  A    between atoms: _96  and  _99
REMARK   43  A    between atoms: _99  and  _100
REMARK   44  A    between atoms: _103  and  _105
REMARK   45  A    between atoms: _105  and  _106
REMARK   46  A    between atoms: _109  and  _111
REMARK   47  A    between atoms: _111  and  _112
REMARK   48  A    between atoms: _114  and  _116
REMARK   49  A    between atoms: _116  and  _117
REMARK   50  A    between atoms: _116  and  _119
REMARK   51  A    between atoms: _119  and  _120
REMARK   52  A    between atoms: _120  and  _121
REMARK   53  A    between atoms: _121  and  _122
REMARK   54  A    between atoms: _131  and  _133
REMARK   55  A    between atoms: _133  and  _134
REMARK   56  A    between atoms: _136  and  _138
REMARK   57  A    between atoms: _138  and  _139
REMARK   58  A    between atoms: _138  and  _141
REMARK   59  A    between atoms: _141  and  _142
REMARK   60  A    between atoms: _142  and  _143
REMARK   61  A    between atoms: _143  and  _144
REMARK   62  A    between atoms: _153  and  _155
REMARK   63  A    between atoms: _155  and  _156
REMARK   64  A    between atoms: _155  and  _158
REMARK   65  A    between atoms: _158  and  _159
REMARK   66  A    between atoms: _164  and  _166
REMARK   67  A    between atoms: _166  and  _167
REMARK   68  A    between atoms: _169  and  _171
REMARK   69  A    between atoms: _171  and  _172
REMARK   70  A    between atoms: _171  and  _174
REMARK   71  A    between atoms: _174  and  _175
REMARK   72  A    between atoms: _175  and  _176
REMARK   73  A    between atoms: _176  and  _177
REMARK   74  A    between atoms: _186  and  _188
REMARK   75  A    between atoms: _188  and  _189
REMARK   76  A    between atoms: _191  and  _193
REMARK   77  A    between atoms: _193  and  _194
REMARK   78  A    between atoms: _193  and  _196
REMARK   79  A    between atoms: _196  and  _197
REMARK   80  A    between atoms: _207  and  _209
REMARK   81  A    between atoms: _209  and  _210
REMARK   82  A    between atoms: _213  and  _215
REMARK   83  A    between atoms: _215  and  _216
REMARK   84  A    between atoms: _219  and  _221
REMARK   85  A    between atoms: _221  and  _222
REMARK   86  A    between atoms: _221  and  _224
REMARK   87  A    between atoms: _224  and  _225
REMARK   88  A    between atoms: _228  and  _230
REMARK   89  A    between atoms: _230  and  _231
REMARK   90  A    between atoms: _230  and  _233
REMARK   91  A    between atoms: _233  and  _234
REMARK   92  A    between atoms: _234  and  _235
REMARK   93  A    between atoms: _240  and  _242
REMARK   94  A    between atoms: _242  and  _243
REMARK   95  A    between atoms: _242  and  _245
REMARK   96  A    between atoms: _245  and  _246
REMARK   97  A    between atoms: _249  and  _251
REMARK   98  A    between atoms: _251  and  _252
REMARK   99  A    between atoms: _251  and  _254
REMARK  100  A    between atoms: _254  and  _255
REMARK  101  A    between atoms: _258  and  _260
REMARK  102  A    between atoms: _260  and  _261
REMARK  103  A    between atoms: _260  and  _263
REMARK  104  A    between atoms: _263  and  _264
REMARK  105  A    between atoms: _267  and  _269
REMARK  106  A    between atoms: _269  and  _270
REMARK  107  A    between atoms: _269  and  _272
REMARK  108  A    between atoms: _272  and  _273
REMARK  109  A    between atoms: _275  and  _277
REMARK  110  A    between atoms: _277  and  _278
REMARK  111  A    between atoms: _277  and  _280
REMARK  112  A    between atoms: _283  and  _285
REMARK  113  A    between atoms: _285  and  _286
REMARK  114  A    between atoms: _285  and  _288
REMARK  115  A    between atoms: _288  and  _289
REMARK  116  A    between atoms: _291  and  _293
REMARK  117  A    between atoms: _293  and  _294
REMARK  118  A    between atoms: _293  and  _296
REMARK  119  A    between atoms: _296  and  _297
REMARK  120  A    between atoms: _297  and  _298
REMARK  121  A    between atoms: _298  and  _299
REMARK  122  A    between atoms: _299  and  _300
REMARK  123  A    between atoms: _305  and  _306
REMARK  124  A    between atoms: _311  and  _313
REMARK  125  A    between atoms: _313  and  _314
REMARK  126  A    between atoms: _313  and  _316
REMARK  127  A    between atoms: _316  and  _317
REMARK  128  A    between atoms: _322  and  _324
REMARK  129  A    between atoms: _324  and  _325
REMARK  130  A    between atoms: _324  and  _327
REMARK  131  A    between atoms: _327  and  _328
REMARK  132  A    between atoms: _331  and  _333
REMARK  133  A    between atoms: _333  and  _334
REMARK  134  A    between atoms: _333  and  _336
REMARK  135  A    between atoms: _339  and  _341
REMARK  136  A    between atoms: _341  and  _342
REMARK  137  A    between atoms: _344  and  _346
REMARK  138  A    between atoms: _346  and  _347
REMARK  139  A    between atoms: _346  and  _349
REMARK  140  A    between atoms: _349  and  _350
REMARK  141  A    between atoms: _350  and  _351
REMARK  142  A    between atoms: _351  and  _352
REMARK  143  A    between atoms: _352  and  _353
REMARK  144  A    between atoms: _357  and  _359
REMARK  145  A    between atoms: _359  and  _360
REMARK  146  A    between atoms: _359  and  _362
REMARK  147  A    between atoms: _362  and  _363
REMARK  148  A    between atoms: _366  and  _368
REMARK  149  A    between atoms: _368  and  _369
REMARK  150  A    between atoms: _372  and  _374
REMARK  151  A    between atoms: _374  and  _375
REMARK  152  A    between atoms: _377  and  _379
REMARK  153  A    between atoms: _379  and  _380
REMARK  154  A    between atoms: _379  and  _382
REMARK  155  A    between atoms: _382  and  _383
REMARK  156  A    between atoms: _386  and  _388
REMARK  157  A    between atoms: _388  and  _389
REMARK  158  A    between atoms: _388  and  _391
REMARK  159  A    between atoms: _391  and  _392
REMARK  160  A    between atoms: _395  and  _397
REMARK  161  A    between atoms: _397  and  _398
REMARK  162  A    between atoms: _401  and  _403
REMARK  163  A    between atoms: _403  and  _404
REMARK  164  A    between atoms: _403  and  _406
REMARK  165  A    between atoms: _406  and  _407
REMARK  166  A    between atoms: _407  and  _408
REMARK  167  A    between atoms: _411  and  _413
REMARK  168  A    between atoms: _413  and  _414
REMARK  169  A    between atoms: _413  and  _416
REMARK  170  A    between atoms: _419  and  _421
REMARK  171  A    between atoms: _421  and  _422
REMARK  172  A    between atoms: _421  and  _424
REMARK  173  A    between atoms: _424  and  _425
REMARK  174  A    between atoms: _428  and  _430
REMARK  175  A    between atoms: _430  and  _431
REMARK  176  A    between atoms: _433  and  _435
REMARK  177  A    between atoms: _435  and  _436
REMARK  178  A    between atoms: _435  and  _438
REMARK  179  A    between atoms: _441  and  _443
REMARK  180  A    between atoms: _443  and  _444
REMARK  181  A    between atoms: _446  and  _448
REMARK  182  A    between atoms: _448  and  _449
REMARK  183  A    between atoms: _448  and  _451
REMARK  184  A    between atoms: _451  and  _452
REMARK  185  A    between atoms: _455  and  _457
REMARK  186  A    between atoms: _457  and  _458
REMARK  187  A    between atoms: _457  and  _460
REMARK  188  A    between atoms: _460  and  _461
REMARK  189  A    between atoms: _466  and  _468
REMARK  190  A    between atoms: _468  and  _469
REMARK  191  A    between atoms: _468  and  _471
REMARK  192  A    between atoms: _474  and  _476
REMARK  193  A    between atoms: _476  and  _477
REMARK  194  A    between atoms: _476  and  _479
REMARK  195  A    between atoms: _479  and  _480
REMARK  196  A    between atoms: _480  and  _481
REMARK  197  A    between atoms: _486  and  _488
REMARK  198  A    between atoms: _488  and  _489
REMARK  199  A    between atoms: _493  and  _494
REMARK  200  A    between atoms: _499  and  _501
REMARK  201  A    between atoms: _501  and  _502
REMARK  202  A    between atoms: _501  and  _504
REMARK  203  A    between atoms: _504  and  _505
REMARK  204  A    between atoms: _505  and  _506
REMARK  205  A    between atoms: _509  and  _511
REMARK  206  A    between atoms: _511  and  _512
REMARK  207  A    between atoms: _511  and  _514
REMARK  208  A    between atoms: _517  and  _519
REMARK  209  A    between atoms: _519  and  _520
REMARK  210  A    between atoms: _519  and  _522
REMARK  211  A    between atoms: _522  and  _523
REMARK  212  A    between atoms: _527  and  _528
REMARK  213  A    between atoms: _533  and  _535
REMARK  214  A    between atoms: _535  and  _536
REMARK  215  A    between atoms: _535  and  _538
REMARK  216  A    between atoms: _538  and  _539
REMARK  217  A    between atoms: _542  and  _544
REMARK  218  A    between atoms: _544  and  _545
REMARK  219  A    between atoms: _548  and  _550
REMARK  220  A    between atoms: _550  and  _551
REMARK  221  A    between atoms: _550  and  _553
REMARK  222  A    between atoms: _553  and  _554
REMARK  223  A    between atoms: _557  and  _559
REMARK  224  A    between atoms: _559  and  _560
REMARK  225  A    between atoms: _559  and  _562
REMARK  226  A    between atoms: _562  and  _563
REMARK  227  A    between atoms: _565  and  _567
REMARK  228  A    between atoms: _567  and  _568
REMARK  229  A    between atoms: _570  and  _572
REMARK  230  A    between atoms: _572  and  _573
REMARK  231  A    between atoms: _572  and  _575
REMARK  232  A    between atoms: _575  and  _576
REMARK  233  A    between atoms: _579  and  _581
REMARK  234  A    between atoms: _581  and  _582
REMARK  235  A    between atoms: _581  and  _584
REMARK                            x       y       z     vdW  Elec       q    Type
REMARK                         _______ _______ _______ _____ _____    ______ ____
ROOT
ATOM      1  CA  ALA A   1      -1.989 -10.164  24.229  0.00  0.00    +0.133 C 
ATOM      2  CB  ALA A   1      -0.863  -9.721  23.311  0.00  0.00    +0.027 C 
ENDROOT
BRANCH   1   3
ATOM      3  N   ALA A   1      -2.748 -11.252  23.622  0.00  0.00    -0.239 NA
ATOM      4  H   ALA A   1      -3.244 -11.088  22.723  0.00  0.00    +0.142 HD
ENDBRANCH   1   3
BRANCH   1   5
ATOM      5  C   ALA A   1      -2.887  -8.982  24.567  0.00  0.00    +0.224 C 
ATOM      6  O   ALA A   1      -3.703  -8.556  23.749  0.00  0.00    -0.287 OA
ENDBRANCH   1   5
TORSDOF 2
REMARK  Name = ../refined-set-2016/4xtw/4xtw_pocket.pdb
REMARK  235 active torsions:
REMARK  status: ('A' for Active; 'I' for Inactive)
REMARK    1  A    between atoms: _1  and  _3
REMARK    2  A    between atoms: _3  and  _4
REMARK    3  A    between atoms: _3  and  _6
REMARK    4  A    between atoms: _6  and  _7
REMARK    5  A    between atoms: _10  and  _12
REMARK    6  A    between atoms: _12  and  _13
REMARK    7  A    between atoms: _15  and  _17
REMARK    8  A    between atoms: _17  and  _18
REMARK    9  A    between atoms: _17  and  _20
REMARK   10  A    between atoms: _20  and  _21
REMARK   11  A    between atoms: _23  and  _25
REMARK   12  A    between atoms: _25  and  _26
REMARK   13  A    between atoms: _25  and  _28
REMARK   14  A    between atoms: _28  and  _29
REMARK   15  A    between atoms: _32  and  _34
REMARK   16  A    between atoms: _34  and  _35
REMARK   17  A    between atoms: _34  and  _37
REMARK   18  A    between atoms: _37  and  _38
REMARK   19  A    between atoms: _43  and  _45
REMARK   20  A    between atoms: _45  and  _46
REMARK   21  A    between atoms: _49  and  _51
REMARK   22  A    between atoms: _51  and  _52
REMARK   23  A    between atoms: _51  and  _54
REMARK   24  A    between atoms: _54  and  _55
REMARK   25  A    between atoms: _58  and  _60
REMARK   26  A    between atoms: _60  and  _61
REMARK   27  A    between atoms: _60  and  _63
REMARK   28  A    between atoms: _63  and  _64
REMARK   29  A    between atoms: _67  and  _69
REMARK   30  A    between atoms: _69  and  _70
REMARK   31  A    between atoms: _69  and  _72
REMARK   32  A    between atoms: _72  and  _73
REMARK   33  A    between atoms: _76  and  _78
REMARK   34  A    between atoms: _78  and  _79
REMARK   35  A    between atoms: _82  and  _84
REMARK   36  A    between atoms: _84  and  _85
REMARK   37  A    between atoms: _84  and  _87
REMARK   38  A    between atoms: _87  and  _88
REMARK   39  A    between atoms: _88  and  _89
REMARK   40  A    between atoms: _94  and  _96
REMARK   41  A    between atoms: _96  and  _97
REMARK   42  A    between atoms: _96  and  _99
REMARK   43  A    between atoms: _99  and  _100
REMARK   44  A    between atoms: _103  and  _105
REMARK   45  A    between atoms: _105  and  _106
REMARK   46  A    between atoms: _109  and  _111
REMARK   47  A    between atoms: _111  and  _112
REMARK   48  A    between atoms: _114  and  _116
REMARK   49  A    between atoms: _116  and  _117
REMARK   50  A    between atoms: _116  and  _119
REMARK   51  A    between atoms: _119  and  _120
REMARK   52  A    between atoms: _120  and  _121
REMARK   53  A    between atoms: _121  and  _122
REMARK   54  A    between atoms: _131  and  _133
REMARK   55  A    between atoms: _133  and  _134
REMARK   56  A    between atoms: _136  and  _138
REMARK   57  A    between atoms: _138  and  _139
REMARK   58  A    between atoms: _138  and  _141
REMARK   59  A    between atoms: _141  and  _142
REMARK   60  A    between atoms: _142  and  _143
REMARK   61  A    between atoms: _143  and  _144
REMARK   62  A    between atoms: _153  and  _155
REMARK   63  A    between atoms: _155  and  _156
REMARK   64  A    between atoms: _155  and  _158
REMARK   65  A    between atoms: _158  and  _159
REMARK   66  A    between atoms: _164  and  _166
REMARK   67  A    between atoms: _166  and  _167
REMARK   68  A    between atoms: _169  and  _171
REMARK   69  A    between atoms: _171  and  _172
REMARK   70  A    between atoms: _171  and  _174
REMARK   71  A    between atoms: _174  and  _175
REMARK   72  A    between atoms: _175  and  _176
REMARK   73  A    between atoms: _176  and  _177
REMARK   74  A    between atoms: _186  and  _188
REMARK   75  A    between atoms: _188  and  _189
REMARK   76  A    between atoms: _191  and  _193
REMARK   77  A    between atoms: _193  and  _194
REMARK   78  A    between atoms: _193  and  _196
REMARK   79  A    between atoms: _196  and  _197
REMARK   80  A    between atoms: _207  and  _209
REMARK   81  A    between atoms: _209  and  _210
REMARK   82  A    between atoms: _213  and  _215
REMARK   83  A    between atoms: _215  and  _216
REMARK   84  A    between atoms: _219  and  _221
REMARK   85  A    between atoms: _221  and  _222
REMARK   86  A    between atoms: _221  and  _224
REMARK   87  A    between atoms: _224  and  _225
REMARK   88  A    between atoms: _228  and  _230
REMARK   89  A    between atoms: _230  and  _231
REMARK   90  A    between atoms: _230  and  _233
REMARK   91  A    between atoms: _233  and  _234
REMARK   92  A    between atoms: _234  and  _235
REMARK   93  A    between atoms: _240  and  _242
REMARK   94  A    between atoms: _242  and  _243
REMARK   95  A    between atoms: _242  and  _245
REMARK   96  A    between atoms: _245  and  _246
REMARK   97  A    between atoms: _249  and  _251
REMARK   98  A    between atoms: _251  and  _252
REMARK   99  A    between atoms: _251  and  _254
REMARK  100  A    between atoms: _254  and  _255
REMARK  101  A    between atoms: _258  and  _260
REMARK  102  A    between atoms: _260  and  _261
REMARK  103  A    between atoms: _260  and  _263
REMARK  104  A    between atoms: _263  and  _264
REMARK  105  A    between atoms: _267  and  _269
REMARK  106  A    between atoms: _269  and  _270
REMARK  107  A    between atoms: _269  and  _272
REMARK  108  A    between atoms: _272  and  _273
REMARK  109  A    between atoms: _275  and  _277
REMARK  110  A    between atoms: _277  and  _278
REMARK  111  A    between atoms: _277  and  _280
REMARK  112  A    between atoms: _283  and  _285
REMARK  113  A    between atoms: _285  and  _286
REMARK  114  A    between atoms: _285  and  _288
REMARK  115  A    between atoms: _288  and  _289
REMARK  116  A    between atoms: _291  and  _293
REMARK  117  A    between atoms: _293  and  _294
REMARK  118  A    between atoms: _293  and  _296
REMARK  119  A    between atoms: _296  and  _297
REMARK  120  A    between atoms: _297  and  _298
REMARK  121  A    between atoms: _298  and  _299
REMARK  122  A    between atoms: _299  and  _300
REMARK  123  A    between atoms: _305  and  _306
REMARK  124  A    between atoms: _311  and  _313
REMARK  125  A    between atoms: _313  and  _314
REMARK  126  A    between atoms: _313  and  _316
REMARK  127  A    between atoms: _316  and  _317
REMARK  128  A    between atoms: _322  and  _324
REMARK  129  A    between atoms: _324  and  _325
REMARK  130  A    between atoms: _324  and  _327
REMARK  131  A    between atoms: _327  and  _328
REMARK  132  A    between atoms: _331  and  _333
REMARK  133  A    between atoms: _333  and  _334
REMARK  134  A    between atoms: _333  and  _336
REMARK  135  A    between atoms: _339  and  _341
REMARK  136  A    between atoms: _341  and  _342
REMARK  137  A    between atoms: _344  and  _346
REMARK  138  A    between atoms: _346  and  _347
REMARK  139  A    between atoms: _346  and  _349
REMARK  140  A    between atoms: _349  and  _350
REMARK  141  A    between atoms: _350  and  _351
REMARK  142  A    between atoms: _351  and  _352
REMARK  143  A    between atoms: _352  and  _353
REMARK  144  A    between atoms: _357  and  _359
REMARK  145  A    between atoms: _359  and  _360
REMARK  146  A    between atoms: _359  and  _362
REMARK  147  A    between atoms: _362  and  _363
REMARK  148  A    between atoms: _366  and  _368
REMARK  149  A    between atoms: _368  and  _369
REMARK  150  A    between atoms: _372  and  _374
REMARK  151  A    between atoms: _374  and  _375
REMARK  152  A    between atoms: _377  and  _379
REMARK  153  A    between atoms: _379  and  _380
REMARK  154  A    between atoms: _379  and  _382
REMARK  155  A    between atoms: _382  and  _383
REMARK  156  A    between atoms: _386  and  _388
REMARK  157  A    between atoms: _388  and  _389
REMARK  158  A    between atoms: _388  and  _391
REMARK  159  A    between atoms: _391  and  _392
REMARK  160  A    between atoms: _395  and  _397
REMARK  161  A    between atoms: _397  and  _398
REMARK  162  A    between atoms: _401  and  _403
REMARK  163  A    between atoms: _403  and  _404
REMARK  164  A    between atoms: _403  and  _406
REMARK  165  A    between atoms: _406  and  _407
REMARK  166  A    between atoms: _407  and  _408
REMARK  167  A    between atoms: _411  and  _413
REMARK  168  A    between atoms: _413  and  _414
REMARK  169  A    between atoms: _413  and  _416
REMARK  170  A    between atoms: _419  and  _421
REMARK  171  A    between atoms: _421  and  _422
REMARK  172  A    between atoms: _421  and  _424
REMARK  173  A    between atoms: _424  and  _425
REMARK  174  A    between atoms: _428  and  _430
REMARK  175  A    between atoms: _430  and  _431
REMARK  176  A    between atoms: _433  and  _435
REMARK  177  A    between atoms: _435  and  _436
REMARK  178  A    between atoms: _435  and  _438
REMARK  179  A    between atoms: _441  and  _443
REMARK  180  A    between atoms: _443  and  _444
REMARK  181  A    between atoms: _446  and  _448
REMARK  182  A    between atoms: _448  and  _449
REMARK  183  A    between atoms: _448  and  _451
REMARK  184  A    between atoms: _451  and  _452
REMARK  185  A    between atoms: _455  and  _457
REMARK  186  A    between atoms: _457  and  _458
REMARK  187  A    between atoms: _457  and  _460
REMARK  188  A    between atoms: _460  and  _461
REMARK  189  A    between atoms: _466  and  _468
REMARK  190  A    between atoms: _468  and  _469
REMARK  191  A    between atoms: _468  and  _471
REMARK  192  A    between atoms: _474  and  _476
REMARK  193  A    between atoms: _476  and  _477
REMARK  194  A    between atoms: _476  and  _479
REMARK  195  A    between atoms: _479  and  _480
REMARK  196  A    between atoms: _480  and  _481
REMARK  197  A    between atoms: _486  and  _488
REMARK  198  A    between atoms: _488  and  _489
REMARK  199  A    between atoms: _493  and  _494
REMARK  200  A    between atoms: _499  and  _501
REMARK  201  A    between atoms: _501  and  _502
REMARK  202  A    between atoms: _501  and  _504
REMARK  203  A    between atoms: _504  and  _505
REMARK  204  A    between atoms: _505  and  _506
REMARK  205  A    between atoms: _509  and  _511
REMARK  206  A    between atoms: _511  and  _512
REMARK  207  A    between atoms: _511  and  _514
REMARK  208  A    between atoms: _517  and  _519
REMARK  209  A    between atoms: _519  and  _520
REMARK  210  A    between atoms: _519  and  _522
REMARK  211  A    between atoms: _522  and  _523
REMARK  212  A    between atoms: _527  and  _528
REMARK  213  A    between atoms: _533  and  _535
REMARK  214  A    between atoms: _535  and  _536
REMARK  215  A    between atoms: _535  and  _538
REMARK  216  A    between atoms: _538  and  _539
REMARK  217  A    between atoms: _542  and  _544
REMARK  218  A    between atoms: _544  and  _545
REMARK  219  A    between atoms: _548  and  _550
REMARK  220  A    between atoms: _550  and  _551
REMARK  221  A    between atoms: _550  and  _553
REMARK  222  A    between atoms: _553  and  _554
REMARK  223  A    between atoms: _557  and  _559
REMARK  224  A    between atoms: _559  and  _560
REMARK  225  A    between atoms: _559  and  _562
REMARK  226  A    between atoms: _562  and  _563
REMARK  227  A    between atoms: _565  and  _567
REMARK  228  A    between atoms: _567  and  _568
REMARK  229  A    between atoms: _570  and  _572
REMARK  230  A    between atoms: _572  and  _573
REMARK  231  A    between atoms: _572  and  _575
REMARK  232  A    between atoms: _575  and  _576
REMARK  233  A    between atoms: _579  and  _581
REMARK  234  A    between atoms: _581  and  _582
REMARK  235  A    between atoms: _581  and  _584
REMARK                            x       y       z     vdW  Elec       q    Type
REMARK                         _______ _______ _______ _____ _____    ______ ____
ROOT
ATOM      1  C   ARG A   7       0.649  -7.008   4.557  0.00  0.00    +0.241 C 
ATOM      2  O   ARG A   7       0.780  -5.786   4.636  0.00  0.00    -0.273 OA
ATOM      3  N   HIS A   8       1.419  -7.795   3.806  0.00  0.00    -0.297 N 
ATOM      4  H   HIS A   8       1.184  -8.808   3.778  0.00  0.00    +0.150 HD
ENDROOT
BRANCH   3   5
ATOM      5  CA  HIS A   8       2.573  -7.348   3.015  0.00  0.00    +0.155 C 
BRANCH   5   6
ATOM      6  C   HIS A   8       3.333  -6.143   3.575  0.00  0.00    +0.241 C 
ATOM      7  N   GLY A   9       3.964  -6.334   4.730  0.00  0.00    -0.295 N 
ATOM      8  H   GLY A   9       3.783  -7.207   5.266  0.00  0.00    +0.150 HD
ATOM      9  O   HIS A   8       3.343  -5.069   2.973  0.00  0.00    -0.273 OA
BRANCH   7  10
ATOM     10  CA  GLY A   9       4.899  -5.358   5.264  0.00  0.00    +0.176 C 
BRANCH  10  11
ATOM     11  C   GLY A   9       4.314  -4.213   6.068  0.00  0.00    +0.243 C 
ATOM     12  O   GLY A   9       5.056  -3.392   6.608  0.00  0.00    -0.273 OA
ATOM     13  N   ARG A  10       2.991  -4.147   6.154  0.00  0.00    -0.297 N 
ATOM     14  H   ARG A  10       2.410  -4.874   5.690  0.00  0.00    +0.150 HD
BRANCH  13  15
ATOM     15  CA  ARG A  10       2.341  -3.068   6.891  0.00  0.00    +0.149 C 
BRANCH  15  16
ATOM     16  C   ARG A  10       2.348  -3.322   8.391  0.00  0.00    +0.241 C 
ATOM     17  N   GLY A  11       1.917  -2.325   9.155  0.00  0.00    -0.295 N 
ATOM     18  H   GLY A  11       1.613  -1.437   8.708  0.00  0.00    +0.150 HD
ATOM     19  O   ARG A  10       2.735  -4.396   8.848  0.00  0.00    -0.273 OA
BRANCH  17  20
ATOM     20  CA  GLY A  11       1.860  -2.447  10.598  0.00  0.00    +0.176 C 
BRANCH  20  21
ATOM     21  C   GLY A  11       0.441  -2.593  11.109  0.00  0.00    +0.243 C 
ATOM     22  N   TRP A  12       0.316  -2.816  12.413  0.00  0.00    -0.297 N 
ATOM     23  H   TRP A  12       1.174  -2.969  12.981  0.00  0.00    +0.150 HD
ATOM     24  O   GLY A  11      -0.520  -2.518  10.343  0.00  0.00    -0.273 OA
BRANCH  22  25
ATOM     25  CA  TRP A  12      -0.981  -2.853  13.074  0.00  0.00    +0.153 C 
BRANCH  25  26
ATOM     26  C   TRP A  12      -0.862  -2.153  14.419  0.00  0.00    +0.241 C 
ATOM     27  O   TRP A  12      -0.086  -2.573  15.278  0.00  0.00    -0.273 OA
ATOM     28  N   ALA A  13      -1.623  -1.079  14.595  0.00  0.00    -0.297 N 
ATOM     29  H   ALA A  13      -2.320  -0.825  13.866  0.00  0.00    +0.150 HD
BRANCH  28  30
ATOM     30  CA  ALA A  13      -1.505  -0.247  15.787  0.00  0.00    +0.149 C 
ATOM     31  CB  ALA A  13      -1.699   1.218  15.429  0.00  0.00    +0.031 C 
BRANCH  30  32
ATOM     32  C   ALA A  13      -2.496  -0.662  16.866  0.00  0.00    +0.241 C 
ATOM     33  N   ALA A  14      -2.094  -0.496  18.121  0.00  0.00    -0.297 N 
ATOM     34  H   ALA A  14      -1.156  -0.085  18.302  0.00  0.00    +0.150 HD
ATOM     35  O   ALA A  13      -3.602  -1.113  16.568  0.00  0.00    -0.273 OA
BRANCH  33  36
ATOM     36  CA  ALA A  14      -2.932  -0.875  19.249  0.00  0.00    +0.149 C 
ATOM     37  CB  ALA A  14      -2.902  -2.385  19.443  0.00  0.00    +0.031 C 
BRANCH  36  38
ATOM     38  C   ALA A  14      -2.497  -0.175  20.528  0.00  0.00    +0.241 C 
ATOM     39  N   THR A  15      -3.438  -0.010  21.452  0.00  0.00    -0.296 N 
ATOM     40  H   THR A  15      -4.431  -0.192  21.202  0.00  0.00    +0.150 HD
ATOM     41  O   ALA A  14      -1.340   0.216  20.670  0.00  0.00    -0.273 OA
BRANCH  39  42
ATOM     42  CA  THR A  15      -3.115   0.419  22.807  0.00  0.00    +0.164 C 
BRANCH  42  43
ATOM     43  C   THR A  15      -3.635  -0.634  23.777  0.00  0.00    +0.229 C 
ATOM     44  O   THR A  15      -4.439  -1.487  23.400  0.00  0.00    -0.286 OA
ENDBRANCH  42  43
BRANCH  42  45
ATOM     45  CB  THR A  15      -3.712   1.800  23.149  0.00  0.00    +0.136 C 
ATOM     46  CG2 THR A  15      -3.162   2.868  22.213  0.00  0.00    +0.034 C 
BRANCH  45  47
ATOM     47  OG1 THR A  15      -5.139   1.755  23.035  0.00  0.00    -0.382 OA
ATOM     48  HG1 THR A  15      -5.515   2.644  23.256  0.00  0.00    +0.210 HD
ENDBRANCH  45  47
ENDBRANCH  42  45
ENDBRANCH  39  42
ENDBRANCH  36  38
ENDBRANCH  33  36
ENDBRANCH  30  32
ENDBRANCH  28  30
ENDBRANCH  25  26
BRANCH  25  49
ATOM     49  CB  TRP A  12      -1.471  -4.292  13.249  0.00  0.00    +0.057 C 
BRANCH  49  50
ATOM     50  CG  TRP A  12      -2.851  -4.391  13.826  0.00  0.00    -0.002 A 
ATOM     51  CD1 TRP A  12      -3.181  -4.672  15.120  0.00  0.00    +0.068 A 
ATOM     52  NE1 TRP A  12      -4.547  -4.674  15.271  0.00  0.00    -0.352 N 
ATOM     53  HE1 TRP A  12      -5.057  -4.861  16.158  0.00  0.00    +0.166 HD
ATOM     54  CE2 TRP A  12      -5.127  -4.389  14.063  0.00  0.00    +0.056 A 
ATOM     55  CZ2 TRP A  12      -6.473  -4.280  13.715  0.00  0.00    +0.017 A 
ATOM     56  CH2 TRP A  12      -6.766  -3.981  12.413  0.00  0.00    +0.001 A 
ATOM     57  CZ3 TRP A  12      -5.756  -3.792  11.461  0.00  0.00    +0.000 A 
ATOM     58  CE3 TRP A  12      -4.420  -3.898  11.805  0.00  0.00    +0.001 A 
ATOM     59  CD2 TRP A  12      -4.089  -4.205  13.128  0.00  0.00    +0.013 A 
ENDBRANCH  49  50
ENDBRANCH  25  49
ENDBRANCH  22  25
ENDBRANCH  20  21
ENDBRANCH  17  20
ENDBRANCH  15  16
BRANCH  15  60
ATOM     60  CB  ARG A  10       0.906  -2.880   6.407  0.00  0.00    +0.033 C 
BRANCH  60  61
ATOM     61  CG  ARG A  10       0.799  -2.425   4.969  0.00  0.00    +0.045 C 
BRANCH  61  62
ATOM     62  CD  ARG A  10      -0.649  -2.376   4.535  0.00  0.00    +0.174 C 
BRANCH  62  63
ATOM     63  NE  ARG A  10      -0.775  -2.077   3.114  0.00  0.00    -0.265 N 
ATOM     64  HE  ARG A  10       0.075  -1.760   2.605  0.00  0.00    +0.259 HD
ATOM     65  CZ  ARG A  10      -1.907  -2.184   2.429  0.00  0.00    +0.342 C 
ATOM     66  NH2 ARG A  10      -3.016  -2.590   3.034  0.00  0.00    -0.292 N 
ATOM     67 HH21 ARG A  10      -3.000  -2.825   4.047  0.00  0.00    +0.255 HD
ATOM     68 HH22 ARG A  10      -3.902  -2.673   2.495  0.00  0.00    +0.255 HD
ATOM     69  NH1 ARG A  10      -1.927  -1.889   1.138  0.00  0.00    -0.292 N 
ATOM     70 HH11 ARG A  10      -1.057  -1.574   0.663  0.00  0.00    +0.255 HD
ATOM     71 HH12 ARG A  10      -2.813  -1.972   0.599  0.00  0.00    +0.255 HD
ENDBRANCH  62  63
ENDBRANCH  61  62
ENDBRANCH  60  61
ENDBRANCH  15  60
ENDBRANCH  13  15
ENDBRANCH  10  11
ENDBRANCH   7  10
ENDBRANCH   5   6
BRANCH   5  72
ATOM     72  CB  HIS A   8       2.148  -7.050   1.570  0.00  0.00    +0.076 C 
BRANCH  72  73
ATOM     73  CG  HIS A   8       0.832  -6.345   1.447  0.00  0.00    +0.082 A 
ATOM     74  CD2 HIS A   8       0.486  -5.055   1.670  0.00  0.00    +0.115 A 
ATOM     75  NE2 HIS A   8      -0.854  -4.941   1.393  0.00  0.00    -0.221 NA
ATOM     76  CE1 HIS A   8      -1.316  -6.119   1.009  0.00  0.00    +0.199 A 
ATOM     77  ND1 HIS A   8      -0.314  -6.983   1.031  0.00  0.00    -0.227 NA
ENDBRANCH  72  73
ENDBRANCH   5  72
ENDBRANCH   3   5
BRANCH   1  78
ATOM     78  CA  ARG A   7      -0.453  -7.725   5.331  0.00  0.00    +0.149 C 
BRANCH  78  81
ATOM     79  C   GLY A   6       0.049  -6.967   7.584  0.00  0.00    +0.243 C 
ATOM     80  O   GLY A   6       1.154  -7.507   7.566  0.00  0.00    -0.273 OA
ATOM     81  N   ARG A   7      -0.796  -7.019   6.560  0.00  0.00    -0.297 N 
ATOM     82  H   ARG A   7      -1.720  -6.547   6.636  0.00  0.00    +0.150 HD
BRANCH  79  83
ATOM     83  CA  GLY A   6      -0.406  -6.197   8.807  0.00  0.00    +0.176 C 
BRANCH  83  86
ATOM     84  C   ARG A   5       0.678  -6.777  10.906  0.00  0.00    +0.241 C 
ATOM     85  O   ARG A   5      -0.289  -7.431  11.301  0.00  0.00    -0.273 OA
ATOM     86  N   GLY A   6       0.683  -6.106   9.759  0.00  0.00    -0.295 N 
ATOM     87  H   GLY A   6       1.495  -5.495   9.537  0.00  0.00    +0.150 HD
BRANCH  84  88
ATOM     88  CA  ARG A   5       1.957  -6.686  11.731  0.00  0.00    +0.149 C 
BRANCH  88  91
ATOM     89  C   GLY A   4       2.096  -5.457  13.819  0.00  0.00    +0.243 C 
ATOM     90  O   GLY A   4       2.661  -4.508  13.275  0.00  0.00    -0.273 OA
ATOM     91  N   ARG A   5       1.689  -6.532  13.154  0.00  0.00    -0.297 N 
ATOM     92  H   ARG A   5       1.169  -7.278  13.659  0.00  0.00    +0.150 HD
BRANCH  89  93
ATOM     93  CA  GLY A   4       1.825  -5.450  15.310  0.00  0.00    +0.176 C 
BRANCH  93  95
ATOM     94  C   ALA A   3       4.090  -4.933  16.043  0.00  0.00    +0.241 C 
ATOM     95  N   GLY A   4       2.787  -4.662  16.060  0.00  0.00    -0.295 N 
ATOM     96  H   GLY A   4       2.447  -3.860  16.629  0.00  0.00    +0.150 HD
ATOM     97  O   ALA A   3       4.581  -5.839  15.370  0.00  0.00    -0.273 OA
BRANCH  94  98
ATOM     98  CA  ALA A   3       4.969  -4.050  16.923  0.00  0.00    +0.149 C 
ATOM     99  CB  ALA A   3       6.403  -4.560  16.927  0.00  0.00    +0.031 C 
BRANCH  98 102
ATOM    100  C   THR A   2       4.365  -2.838  18.939  0.00  0.00    +0.243 C 
ATOM    101  O   THR A   2       4.754  -1.773  18.460  0.00  0.00    -0.273 OA
ATOM    102  N   ALA A   3       4.444  -3.990  18.283  0.00  0.00    -0.297 N 
ATOM    103  H   ALA A   3       4.126  -4.865  18.747  0.00  0.00    +0.150 HD
BRANCH 100 104
ATOM    104  CA  THR A   2       3.761  -2.880  20.343  0.00  0.00    +0.176 C 
BRANCH 104 106
ATOM    105  C   GLN A   1       1.635  -4.055  20.509  0.00  0.00    +0.238 C 
ATOM    106  N   THR A   2       2.961  -4.075  20.611  0.00  0.00    -0.295 N 
ATOM    107  H   THR A   2       3.438  -4.957  20.887  0.00  0.00    +0.150 HD
ATOM    108  O   GLN A   1       1.017  -3.107  20.024  0.00  0.00    -0.274 OA
BRANCH 105 109
ATOM    109  CA  GLN A   1       0.887  -5.280  21.030  0.00  0.00    +0.145 C 
BRANCH 109 110
ATOM    110  N   GLN A   1      -0.016  -4.876  22.101  0.00  0.00    -0.238 NA
ATOM    111  H   GLN A   1      -0.623  -4.043  21.960  0.00  0.00    +0.142 HD
ENDBRANCH 109 110
BRANCH 109 112
ATOM    112  CB  GLN A   1       0.107  -5.964  19.906  0.00  0.00    +0.036 C 
BRANCH 112 113
ATOM    113  CG  GLN A   1       0.933  -6.882  19.023  0.00  0.00    +0.087 C 
BRANCH 113 114
ATOM    114  CD  GLN A   1       0.078  -7.646  18.028  0.00  0.00    +0.219 C 
ATOM    115  OE1 GLN A   1       0.080  -8.876  18.006  0.00  0.00    -0.275 OA
ATOM    116  NE2 GLN A   1      -0.661  -6.917  17.199  0.00  0.00    -0.329 N 
ATOM    117 HE21 GLN A   1      -0.632  -5.879  17.253  0.00  0.00    +0.145 HD
ATOM    118 HE22 GLN A   1      -1.269  -7.384  16.496  0.00  0.00    +0.145 HD
ENDBRANCH 113 114
ENDBRANCH 112 113
ENDBRANCH 109 112
ENDBRANCH 105 109
ENDBRANCH 104 106
BRANCH 104 119
ATOM    119  CB  THR A   2       4.904  -2.735  21.369  0.00  0.00    +0.137 C 
ATOM    120  CG2 THR A   2       4.339  -2.484  22.759  0.00  0.00    +0.034 C 
BRANCH 119 121
ATOM    121  OG1 THR A   2       5.691  -3.933  21.386  0.00  0.00    -0.382 OA
ATOM    122  HG1 THR A   2       6.423  -3.836  22.045  0.00  0.00    +0.210 HD
ENDBRANCH 119 121
ENDBRANCH 104 119
ENDBRANCH 100 104
ENDBRANCH  98 102
ENDBRANCH  94  98
ENDBRANCH  93  95
ENDBRANCH  89  93
ENDBRANCH  88  91
BRANCH  88 123
ATOM    123  CB  ARG A   5       2.822  -7.926  11.488  0.00  0.00    +0.033 C 
BRANCH 123 124
ATOM    124  CG  ARG A   5       4.087  -7.960  12.331  0.00  0.00    +0.045 C 
BRANCH 124 125
ATOM    125  CD  ARG A   5       5.162  -8.827  11.699  0.00  0.00    +0.174 C 
BRANCH 125 126
ATOM    126  NE  ARG A   5       4.795 -10.239  11.674  0.00  0.00    -0.265 N 
ATOM    127  CZ  ARG A   5       5.662 -11.235  11.822  0.00  0.00    +0.342 C 
ATOM    128  NH2 ARG A   5       6.948 -10.974  12.012  0.00  0.00    -0.292 N 
ATOM    129 HH21 ARG A   5       7.625 -11.755  12.128  0.00  0.00    +0.255 HD
ATOM    130 HH22 ARG A   5       7.279  -9.989  12.045  0.00  0.00    +0.255 HD
ATOM    131  NH1 ARG A   5       5.243 -12.491  11.784  0.00  0.00    -0.292 N 
ATOM    132 HH11 ARG A   5       5.923 -13.270  11.900  0.00  0.00    +0.255 HD
ATOM    133 HH12 ARG A   5       4.234 -12.699  11.638  0.00  0.00    +0.255 HD
ATOM    134  HE  ARG A   5       3.794 -10.481  11.532  0.00  0.00    +0.259 HD
ENDBRANCH 125 126
ENDBRANCH 124 125
ENDBRANCH 123 124
ENDBRANCH  88 123
ENDBRANCH  84  88
ENDBRANCH  83  86
ENDBRANCH  79  83
ENDBRANCH  78  81
BRANCH  78 135
ATOM    135  CB  ARG A   7      -1.689  -7.897   4.446  0.00  0.00    +0.033 C 
BRANCH 135 136
ATOM    136  CG  ARG A   7      -2.664  -8.949   4.945  0.00  0.00    +0.045 C 
BRANCH 136 137
ATOM    137  CD  ARG A   7      -3.795  -9.177   3.955  0.00  0.00    +0.174 C 
BRANCH 137 138
ATOM    138  NE  ARG A   7      -4.561  -7.959   3.712  0.00  0.00    -0.265 N 
ATOM    139  HE  ARG A   7      -5.116  -7.569   4.500  0.00  0.00    +0.259 HD
ATOM    140  CZ  ARG A   7      -4.596  -7.315   2.550  0.00  0.00    +0.342 C 
ATOM    141  NH2 ARG A   7      -5.322  -6.212   2.423  0.00  0.00    -0.292 N 
ATOM    142 HH21 ARG A   7      -5.865  -5.850   3.233  0.00  0.00    +0.255 HD
ATOM    143 HH22 ARG A   7      -5.349  -5.709   1.513  0.00  0.00    +0.255 HD
ATOM    144  NH1 ARG A   7      -3.913  -7.778   1.513  0.00  0.00    -0.292 N 
ATOM    145 HH11 ARG A   7      -3.349  -8.646   1.608  0.00  0.00    +0.255 HD
ATOM    146 HH12 ARG A   7      -3.941  -7.273   0.604  0.00  0.00    +0.255 HD
ENDBRANCH 137 138
ENDBRANCH 136 137
ENDBRANCH 135 136
ENDBRANCH  78 135
ENDBRANCH   1  78
TORSDOF 53
REMARK  Name = ../refined-set-2016/4xtw/4xtw_pocket.pdb
REMARK  235 active torsions:
REMARK  status: ('A' for Active; 'I' for Inactive)
REMARK    1  A    between atoms: _1  and  _3
REMARK    2  A    between atoms: _3  and  _4
REMARK    3  A    between atoms: _3  and  _6
REMARK    4  A    between atoms: _6  and  _7
REMARK    5  A    between atoms: _10  and  _12
REMARK    6  A    between atoms: _12  and  _13
REMARK    7  A    between atoms: _15  and  _17
REMARK    8  A    between atoms: _17  and  _18
REMARK    9  A    between atoms: _17  and  _20
REMARK   10  A    between atoms: _20  and  _21
REMARK   11  A    between atoms: _23  and  _25
REMARK   12  A    between atoms: _25  and  _26
REMARK   13  A    between atoms: _25  and  _28
REMARK   14  A    between atoms: _28  and  _29
REMARK   15  A    between atoms: _32  and  _34
REMARK   16  A    between atoms: _34  and  _35
REMARK   17  A    between atoms: _34  and  _37
REMARK   18  A    between atoms: _37  and  _38
REMARK   19  A    between atoms: _43  and  _45
REMARK   20  A    between atoms: _45  and  _46
REMARK   21  A    between atoms: _49  and  _51
REMARK   22  A    between atoms: _51  and  _52
REMARK   23  A    between atoms: _51  and  _54
REMARK   24  A    between atoms: _54  and  _55
REMARK   25  A    between atoms: _58  and  _60
REMARK   26  A    between atoms: _60  and  _61
REMARK   27  A    between atoms: _60  and  _63
REMARK   28  A    between atoms: _63  and  _64
REMARK   29  A    between atoms: _67  and  _69
REMARK   30  A    between atoms: _69  and  _70
REMARK   31  A    between atoms: _69  and  _72
REMARK   32  A    between atoms: _72  and  _73
REMARK   33  A    between atoms: _76  and  _78
REMARK   34  A    between atoms: _78  and  _79
REMARK   35  A    between atoms: _82  and  _84
REMARK   36  A    between atoms: _84  and  _85
REMARK   37  A    between atoms: _84  and  _87
REMARK   38  A    between atoms: _87  and  _88
REMARK   39  A    between atoms: _88  and  _89
REMARK   40  A    between atoms: _94  and  _96
REMARK   41  A    between atoms: _96  and  _97
REMARK   42  A    between atoms: _96  and  _99
REMARK   43  A    between atoms: _99  and  _100
REMARK   44  A    between atoms: _103  and  _105
REMARK   45  A    between atoms: _105  and  _106
REMARK   46  A    between atoms: _109  and  _111
REMARK   47  A    between atoms: _111  and  _112
REMARK   48  A    between atoms: _114  and  _116
REMARK   49  A    between atoms: _116  and  _117
REMARK   50  A    between atoms: _116  and  _119
REMARK   51  A    between atoms: _119  and  _120
REMARK   52  A    between atoms: _120  and  _121
REMARK   53  A    between atoms: _121  and  _122
REMARK   54  A    between atoms: _131  and  _133
REMARK   55  A    between atoms: _133  and  _134
REMARK   56  A    between atoms: _136  and  _138
REMARK   57  A    between atoms: _138  and  _139
REMARK   58  A    between atoms: _138  and  _141
REMARK   59  A    between atoms: _141  and  _142
REMARK   60  A    between atoms: _142  and  _143
REMARK   61  A    between atoms: _143  and  _144
REMARK   62  A    between atoms: _153  and  _155
REMARK   63  A    between atoms: _155  and  _156
REMARK   64  A    between atoms: _155  and  _158
REMARK   65  A    between atoms: _158  and  _159
REMARK   66  A    between atoms: _164  and  _166
REMARK   67  A    between atoms: _166  and  _167
REMARK   68  A    between atoms: _169  and  _171
REMARK   69  A    between atoms: _171  and  _172
REMARK   70  A    between atoms: _171  and  _174
REMARK   71  A    between atoms: _174  and  _175
REMARK   72  A    between atoms: _175  and  _176
REMARK   73  A    between atoms: _176  and  _177
REMARK   74  A    between atoms: _186  and  _188
REMARK   75  A    between atoms: _188  and  _189
REMARK   76  A    between atoms: _191  and  _193
REMARK   77  A    between atoms: _193  and  _194
REMARK   78  A    between atoms: _193  and  _196
REMARK   79  A    between atoms: _196  and  _197
REMARK   80  A    between atoms: _207  and  _209
REMARK   81  A    between atoms: _209  and  _210
REMARK   82  A    between atoms: _213  and  _215
REMARK   83  A    between atoms: _215  and  _216
REMARK   84  A    between atoms: _219  and  _221
REMARK   85  A    between atoms: _221  and  _222
REMARK   86  A    between atoms: _221  and  _224
REMARK   87  A    between atoms: _224  and  _225
REMARK   88  A    between atoms: _228  and  _230
REMARK   89  A    between atoms: _230  and  _231
REMARK   90  A    between atoms: _230  and  _233
REMARK   91  A    between atoms: _233  and  _234
REMARK   92  A    between atoms: _234  and  _235
REMARK   93  A    between atoms: _240  and  _242
REMARK   94  A    between atoms: _242  and  _243
REMARK   95  A    between atoms: _242  and  _245
REMARK   96  A    between atoms: _245  and  _246
REMARK   97  A    between atoms: _249  and  _251
REMARK   98  A    between atoms: _251  and  _252
REMARK   99  A    between atoms: _251  and  _254
REMARK  100  A    between atoms: _254  and  _255
REMARK  101  A    between atoms: _258  and  _260
REMARK  102  A    between atoms: _260  and  _261
REMARK  103  A    between atoms: _260  and  _263
REMARK  104  A    between atoms: _263  and  _264
REMARK  105  A    between atoms: _267  and  _269
REMARK  106  A    between atoms: _269  and  _270
REMARK  107  A    between atoms: _269  and  _272
REMARK  108  A    between atoms: _272  and  _273
REMARK  109  A    between atoms: _275  and  _277
REMARK  110  A    between atoms: _277  and  _278
REMARK  111  A    between atoms: _277  and  _280
REMARK  112  A    between atoms: _283  and  _285
REMARK  113  A    between atoms: _285  and  _286
REMARK  114  A    between atoms: _285  and  _288
REMARK  115  A    between atoms: _288  and  _289
REMARK  116  A    between atoms: _291  and  _293
REMARK  117  A    between atoms: _293  and  _294
REMARK  118  A    between atoms: _293  and  _296
REMARK  119  A    between atoms: _296  and  _297
REMARK  120  A    between atoms: _297  and  _298
REMARK  121  A    between atoms: _298  and  _299
REMARK  122  A    between atoms: _299  and  _300
REMARK  123  A    between atoms: _305  and  _306
REMARK  124  A    between atoms: _311  and  _313
REMARK  125  A    between atoms: _313  and  _314
REMARK  126  A    between atoms: _313  and  _316
REMARK  127  A    between atoms: _316  and  _317
REMARK  128  A    between atoms: _322  and  _324
REMARK  129  A    between atoms: _324  and  _325
REMARK  130  A    between atoms: _324  and  _327
REMARK  131  A    between atoms: _327  and  _328
REMARK  132  A    between atoms: _331  and  _333
REMARK  133  A    between atoms: _333  and  _334
REMARK  134  A    between atoms: _333  and  _336
REMARK  135  A    between atoms: _339  and  _341
REMARK  136  A    between atoms: _341  and  _342
REMARK  137  A    between atoms: _344  and  _346
REMARK  138  A    between atoms: _346  and  _347
REMARK  139  A    between atoms: _346  and  _349
REMARK  140  A    between atoms: _349  and  _350
REMARK  141  A    between atoms: _350  and  _351
REMARK  142  A    between atoms: _351  and  _352
REMARK  143  A    between atoms: _352  and  _353
REMARK  144  A    between atoms: _357  and  _359
REMARK  145  A    between atoms: _359  and  _360
REMARK  146  A    between atoms: _359  and  _362
REMARK  147  A    between atoms: _362  and  _363
REMARK  148  A    between atoms: _366  and  _368
REMARK  149  A    between atoms: _368  and  _369
REMARK  150  A    between atoms: _372  and  _374
REMARK  151  A    between atoms: _374  and  _375
REMARK  152  A    between atoms: _377  and  _379
REMARK  153  A    between atoms: _379  and  _380
REMARK  154  A    between atoms: _379  and  _382
REMARK  155  A    between atoms: _382  and  _383
REMARK  156  A    between atoms: _386  and  _388
REMARK  157  A    between atoms: _388  and  _389
REMARK  158  A    between atoms: _388  and  _391
REMARK  159  A    between atoms: _391  and  _392
REMARK  160  A    between atoms: _395  and  _397
REMARK  161  A    between atoms: _397  and  _398
REMARK  162  A    between atoms: _401  and  _403
REMARK  163  A    between atoms: _403  and  _404
REMARK  164  A    between atoms: _403  and  _406
REMARK  165  A    between atoms: _406  and  _407
REMARK  166  A    between atoms: _407  and  _408
REMARK  167  A    between atoms: _411  and  _413
REMARK  168  A    between atoms: _413  and  _414
REMARK  169  A    between atoms: _413  and  _416
REMARK  170  A    between atoms: _419  and  _421
REMARK  171  A    between atoms: _421  and  _422
REMARK  172  A    between atoms: _421  and  _424
REMARK  173  A    between atoms: _424  and  _425
REMARK  174  A    between atoms: _428  and  _430
REMARK  175  A    between atoms: _430  and  _431
REMARK  176  A    between atoms: _433  and  _435
REMARK  177  A    between atoms: _435  and  _436
REMARK  178  A    between atoms: _435  and  _438
REMARK  179  A    between atoms: _441  and  _443
REMARK  180  A    between atoms: _443  and  _444
REMARK  181  A    between atoms: _446  and  _448
REMARK  182  A    between atoms: _448  and  _449
REMARK  183  A    between atoms: _448  and  _451
REMARK  184  A    between atoms: _451  and  _452
REMARK  185  A    between atoms: _455  and  _457
REMARK  186  A    between atoms: _457  and  _458
REMARK  187  A    between atoms: _457  and  _460
REMARK  188  A    between atoms: _460  and  _461
REMARK  189  A    between atoms: _466  and  _468
REMARK  190  A    between atoms: _468  and  _469
REMARK  191  A    between atoms: _468  and  _471
REMARK  192  A    between atoms: _474  and  _476
REMARK  193  A    between atoms: _476  and  _477
REMARK  194  A    between atoms: _476  and  _479
REMARK  195  A    between atoms: _479  and  _480
REMARK  196  A    between atoms: _480  and  _481
REMARK  197  A    between atoms: _486  and  _488
REMARK  198  A    between atoms: _488  and  _489
REMARK  199  A    between atoms: _493  and  _494
REMARK  200  A    between atoms: _499  and  _501
REMARK  201  A    between atoms: _501  and  _502
REMARK  202  A    between atoms: _501  and  _504
REMARK  203  A    between atoms: _504  and  _505
REMARK  204  A    between atoms: _505  and  _506
REMARK  205  A    between atoms: _509  and  _511
REMARK  206  A    between atoms: _511  and  _512
REMARK  207  A    between atoms: _511  and  _514
REMARK  208  A    between atoms: _517  and  _519
REMARK  209  A    between atoms: _519  and  _520
REMARK  210  A    between atoms: _519  and  _522
REMARK  211  A    between atoms: _522  and  _523
REMARK  212  A    between atoms: _527  and  _528
REMARK  213  A    between atoms: _533  and  _535
REMARK  214  A    between atoms: _535  and  _536
REMARK  215  A    between atoms: _535  and  _538
REMARK  216  A    between atoms: _538  and  _539
REMARK  217  A    between atoms: _542  and  _544
REMARK  218  A    between atoms: _544  and  _545
REMARK  219  A    between atoms: _548  and  _550
REMARK  220  A    between atoms: _550  and  _551
REMARK  221  A    between atoms: _550  and  _553
REMARK  222  A    between atoms: _553  and  _554
REMARK  223  A    between atoms: _557  and  _559
REMARK  224  A    between atoms: _559  and  _560
REMARK  225  A    between atoms: _559  and  _562
REMARK  226  A    between atoms: _562  and  _563
REMARK  227  A    between atoms: _565  and  _567
REMARK  228  A    between atoms: _567  and  _568
REMARK  229  A    between atoms: _570  and  _572
REMARK  230  A    between atoms: _572  and  _573
REMARK  231  A    between atoms: _572  and  _575
REMARK  232  A    between atoms: _575  and  _576
REMARK  233  A    between atoms: _579  and  _581
REMARK  234  A    between atoms: _581  and  _582
REMARK  235  A    between atoms: _581  and  _584
REMARK                            x       y       z     vdW  Elec       q    Type
REMARK                         _______ _______ _______ _____ _____    ______ ____
ROOT
ATOM      1  CA  ILE A   3      -5.347  -9.367  20.070  0.00  0.00    +0.149 C 
ENDROOT
BRANCH   1   3
ATOM      2  C   ILE A   2      -7.702  -8.814  20.357  0.00  0.00    +0.241 C 
ATOM      3  N   ILE A   3      -6.522  -9.110  20.888  0.00  0.00    -0.297 N 
ATOM      4  H   ILE A   3      -6.435  -9.160  21.923  0.00  0.00    +0.150 HD
ATOM      5  O   ILE A   2      -7.904  -8.773  19.143  0.00  0.00    -0.273 OA
BRANCH   2   6
ATOM      6  CA  ILE A   2      -8.807  -8.479  21.347  0.00  0.00    +0.148 C 
BRANCH   6   9
ATOM      7  C   GLN A   1      -8.581  -6.146  21.947  0.00  0.00    +0.238 C 
ATOM      8  O   GLN A   1      -8.112  -6.393  23.057  0.00  0.00    -0.274 OA
ATOM      9  N   ILE A   2      -9.116  -7.073  21.162  0.00  0.00    -0.297 N 
ATOM     10  H   ILE A   2      -9.767  -6.787  20.403  0.00  0.00    +0.150 HD
BRANCH   7  11
ATOM     11  CA  GLN A   1      -8.586  -4.733  21.391  0.00  0.00    +0.145 C 
BRANCH  11  12
ATOM     12  N   GLN A   1      -8.245  -3.748  22.408  0.00  0.00    -0.238 NA
ATOM     13  H   GLN A   1      -7.411  -3.907  23.008  0.00  0.00    +0.142 HD
ENDBRANCH  11  12
BRANCH  11  14
ATOM     14  CB  GLN A   1      -7.604  -4.667  20.217  0.00  0.00    +0.036 C 
BRANCH  14  15
ATOM     15  CG  GLN A   1      -7.562  -3.353  19.467  0.00  0.00    +0.087 C 
BRANCH  15  16
ATOM     16  CD  GLN A   1      -6.572  -3.388  18.317  0.00  0.00    +0.219 C 
ATOM     17  NE2 GLN A   1      -5.922  -2.260  18.060  0.00  0.00    -0.329 N 
ATOM     18 HE21 GLN A   1      -6.108  -1.411  18.631  0.00  0.00    +0.145 HD
ATOM     19 HE22 GLN A   1      -5.227  -2.225  17.287  0.00  0.00    +0.145 HD
ATOM     20  OE1 GLN A   1      -6.390  -4.422  17.671  0.00  0.00    -0.275 OA
ENDBRANCH  15  16
ENDBRANCH  14  15
ENDBRANCH  11  14
ENDBRANCH   7  11
ENDBRANCH   6   9
BRANCH   6  21
ATOM     21  CB  ILE A   2     -10.025  -9.388  21.135  0.00  0.00    +0.027 C 
ATOM     22  CG2 ILE A   2      -9.583 -10.829  20.942  0.00  0.00    +0.002 C 
BRANCH  21  23
ATOM     23  CG1 ILE A   2     -10.962  -9.293  22.340  0.00  0.00    +0.002 C 
ATOM     24  CD1 ILE A   2     -12.249 -10.064  22.177  0.00  0.00    +0.000 C 
ENDBRANCH  21  23
ENDBRANCH   6  21
ENDBRANCH   2   6
ENDBRANCH   1   3
BRANCH   1  25
ATOM     25  C   ILE A   3      -4.883 -10.799  20.275  0.00  0.00    +0.241 C 
ATOM     26  O   ILE A   3      -4.300 -11.122  21.309  0.00  0.00    -0.273 OA
ATOM     27  N   LEU A   4      -5.147 -11.662  19.300  0.00  0.00    -0.297 N 
ATOM     28  H   LEU A   4      -5.604 -11.335  18.425  0.00  0.00    +0.150 HD
BRANCH  27  29
ATOM     29  CA  LEU A   4      -4.795 -13.066  19.459  0.00  0.00    +0.149 C 
BRANCH  29  30
ATOM     30  C   LEU A   4      -4.227 -13.702  18.198  0.00  0.00    +0.241 C 
ATOM     31  N   SER A   5      -3.468 -14.773  18.401  0.00  0.00    -0.295 N 
ATOM     32  H   SER A   5      -3.209 -15.024  19.377  0.00  0.00    +0.150 HD
ATOM     33  O   LEU A   4      -4.472 -13.242  17.082  0.00  0.00    -0.273 OA
BRANCH  31  34
ATOM     34  CA  SER A   5      -2.985 -15.609  17.314  0.00  0.00    +0.178 C 
BRANCH  34  35
ATOM     35  C   SER A   5      -3.314 -17.069  17.605  0.00  0.00    +0.243 C 
ATOM     36  O   SER A   5      -3.364 -17.487  18.762  0.00  0.00    -0.273 OA
ATOM     37  N   VAL A   6      -3.533 -17.838  16.545  0.00  0.00    -0.298 N 
ATOM     38  H   VAL A   6      -3.412 -17.431  15.596  0.00  0.00    +0.150 HD
BRANCH  37  39
ATOM     39  CA  VAL A   6      -3.937 -19.231  16.667  0.00  0.00    +0.137 C 
BRANCH  39  40
ATOM     40  CB  VAL A   6      -5.454 -19.389  16.386  0.00  0.00    +0.026 C 
ATOM     41  CG2 VAL A   6      -6.263 -19.116  17.649  0.00  0.00    +0.002 C 
ATOM     42  CG1 VAL A   6      -5.774 -20.759  15.807  0.00  0.00    +0.002 C 
ENDBRANCH  39  40
BRANCH  39  43
ATOM     43  C   VAL A   6      -3.126 -20.105  15.714  0.00  0.00    +0.227 C 
ATOM     44  O   VAL A   6      -2.881 -19.722  14.571  0.00  0.00    -0.286 OA
ENDBRANCH  39  43
ENDBRANCH  37  39
ENDBRANCH  34  35
BRANCH  34  45
ATOM     45  CB  SER A   5      -1.481 -15.429  17.108  0.00  0.00    +0.166 C 
BRANCH  45  46
ATOM     46  OG  SER A   5      -1.191 -14.138  16.604  0.00  0.00    -0.380 OA
ATOM     47  H   SER A   5      -1.509 -13.455  17.247  0.00  0.00    +0.211 HD
ENDBRANCH  45  46
ENDBRANCH  34  45
ENDBRANCH  31  34
ENDBRANCH  29  30
BRANCH  29  48
ATOM     48  CB  LEU A   4      -6.011 -13.869  19.941  0.00  0.00    +0.029 C 
BRANCH  48  49
ATOM     49  CG  LEU A   4      -7.259 -14.031  19.065  0.00  0.00    +0.002 C 
ATOM     50  CD2 LEU A   4      -8.480 -14.264  19.942  0.00  0.00    +0.000 C 
ATOM     51  CD1 LEU A   4      -7.118 -15.161  18.048  0.00  0.00    +0.000 C 
ENDBRANCH  48  49
ENDBRANCH  29  48
ENDBRANCH  27  29
ENDBRANCH   1  25
BRANCH   1  52
ATOM     52  CB  ILE A   3      -4.198  -8.396  20.416  0.00  0.00    +0.027 C 
ATOM     53  CG2 ILE A   3      -2.965  -8.698  19.582  0.00  0.00    +0.002 C 
BRANCH  52  54
ATOM     54  CG1 ILE A   3      -4.644  -6.946  20.216  0.00  0.00    +0.002 C 
ATOM     55  CD1 ILE A   3      -3.598  -5.924  20.619  0.00  0.00    +0.000 C 
ENDBRANCH  52  54
ENDBRANCH   1  52
TORSDOF 24
REMARK  Name = ../refined-set-2016/4xtw/4xtw_pocket.pdb
REMARK  235 active torsions:
REMARK  status: ('A' for Active; 'I' for Inactive)
REMARK    1  A    between atoms: _1  and  _3
REMARK    2  A    between atoms: _3  and  _4
REMARK    3  A    between atoms: _3  and  _6
REMARK    4  A    between atoms: _6  and  _7
REMARK    5  A    between atoms: _10  and  _12
REMARK    6  A    between atoms: _12  and  _13
REMARK    7  A    between atoms: _15  and  _17
REMARK    8  A    between atoms: _17  and  _18
REMARK    9  A    between atoms: _17  and  _20
REMARK   10  A    between atoms: _20  and  _21
REMARK   11  A    between atoms: _23  and  _25
REMARK   12  A    between atoms: _25  and  _26
REMARK   13  A    between atoms: _25  and  _28
REMARK   14  A    between atoms: _28  and  _29
REMARK   15  A    between atoms: _32  and  _34
REMARK   16  A    between atoms: _34  and  _35
REMARK   17  A    between atoms: _34  and  _37
REMARK   18  A    between atoms: _37  and  _38
REMARK   19  A    between atoms: _43  and  _45
REMARK   20  A    between atoms: _45  and  _46
REMARK   21  A    between atoms: _49  and  _51
REMARK   22  A    between atoms: _51  and  _52
REMARK   23  A    between atoms: _51  and  _54
REMARK   24  A    between atoms: _54  and  _55
REMARK   25  A    between atoms: _58  and  _60
REMARK   26  A    between atoms: _60  and  _61
REMARK   27  A    between atoms: _60  and  _63
REMARK   28  A    between atoms: _63  and  _64
REMARK   29  A    between atoms: _67  and  _69
REMARK   30  A    between atoms: _69  and  _70
REMARK   31  A    between atoms: _69  and  _72
REMARK   32  A    between atoms: _72  and  _73
REMARK   33  A    between atoms: _76  and  _78
REMARK   34  A    between atoms: _78  and  _79
REMARK   35  A    between atoms: _82  and  _84
REMARK   36  A    between atoms: _84  and  _85
REMARK   37  A    between atoms: _84  and  _87
REMARK   38  A    between atoms: _87  and  _88
REMARK   39  A    between atoms: _88  and  _89
REMARK   40  A    between atoms: _94  and  _96
REMARK   41  A    between atoms: _96  and  _97
REMARK   42  A    between atoms: _96  and  _99
REMARK   43  A    between atoms: _99  and  _100
REMARK   44  A    between atoms: _103  and  _105
REMARK   45  A    between atoms: _105  and  _106
REMARK   46  A    between atoms: _109  and  _111
REMARK   47  A    between atoms: _111  and  _112
REMARK   48  A    between atoms: _114  and  _116
REMARK   49  A    between atoms: _116  and  _117
REMARK   50  A    between atoms: _116  and  _119
REMARK   51  A    between atoms: _119  and  _120
REMARK   52  A    between atoms: _120  and  _121
REMARK   53  A    between atoms: _121  and  _122
REMARK   54  A    between atoms: _131  and  _133
REMARK   55  A    between atoms: _133  and  _134
REMARK   56  A    between atoms: _136  and  _138
REMARK   57  A    between atoms: _138  and  _139
REMARK   58  A    between atoms: _138  and  _141
REMARK   59  A    between atoms: _141  and  _142
REMARK   60  A    between atoms: _142  and  _143
REMARK   61  A    between atoms: _143  and  _144
REMARK   62  A    between atoms: _153  and  _155
REMARK   63  A    between atoms: _155  and  _156
REMARK   64  A    between atoms: _155  and  _158
REMARK   65  A    between atoms: _158  and  _159
REMARK   66  A    between atoms: _164  and  _166
REMARK   67  A    between atoms: _166  and  _167
REMARK   68  A    between atoms: _169  and  _171
REMARK   69  A    between atoms: _171  and  _172
REMARK   70  A    between atoms: _171  and  _174
REMARK   71  A    between atoms: _174  and  _175
REMARK   72  A    between atoms: _175  and  _176
REMARK   73  A    between atoms: _176  and  _177
REMARK   74  A    between atoms: _186  and  _188
REMARK   75  A    between atoms: _188  and  _189
REMARK   76  A    between atoms: _191  and  _193
REMARK   77  A    between atoms: _193  and  _194
REMARK   78  A    between atoms: _193  and  _196
REMARK   79  A    between atoms: _196  and  _197
REMARK   80  A    between atoms: _207  and  _209
REMARK   81  A    between atoms: _209  and  _210
REMARK   82  A    between atoms: _213  and  _215
REMARK   83  A    between atoms: _215  and  _216
REMARK   84  A    between atoms: _219  and  _221
REMARK   85  A    between atoms: _221  and  _222
REMARK   86  A    between atoms: _221  and  _224
REMARK   87  A    between atoms: _224  and  _225
REMARK   88  A    between atoms: _228  and  _230
REMARK   89  A    between atoms: _230  and  _231
REMARK   90  A    between atoms: _230  and  _233
REMARK   91  A    between atoms: _233  and  _234
REMARK   92  A    between atoms: _234  and  _235
REMARK   93  A    between atoms: _240  and  _242
REMARK   94  A    between atoms: _242  and  _243
REMARK   95  A    between atoms: _242  and  _245
REMARK   96  A    between atoms: _245  and  _246
REMARK   97  A    between atoms: _249  and  _251
REMARK   98  A    between atoms: _251  and  _252
REMARK   99  A    between atoms: _251  and  _254
REMARK  100  A    between atoms: _254  and  _255
REMARK  101  A    between atoms: _258  and  _260
REMARK  102  A    between atoms: _260  and  _261
REMARK  103  A    between atoms: _260  and  _263
REMARK  104  A    between atoms: _263  and  _264
REMARK  105  A    between atoms: _267  and  _269
REMARK  106  A    between atoms: _269  and  _270
REMARK  107  A    between atoms: _269  and  _272
REMARK  108  A    between atoms: _272  and  _273
REMARK  109  A    between atoms: _275  and  _277
REMARK  110  A    between atoms: _277  and  _278
REMARK  111  A    between atoms: _277  and  _280
REMARK  112  A    between atoms: _283  and  _285
REMARK  113  A    between atoms: _285  and  _286
REMARK  114  A    between atoms: _285  and  _288
REMARK  115  A    between atoms: _288  and  _289
REMARK  116  A    between atoms: _291  and  _293
REMARK  117  A    between atoms: _293  and  _294
REMARK  118  A    between atoms: _293  and  _296
REMARK  119  A    between atoms: _296  and  _297
REMARK  120  A    between atoms: _297  and  _298
REMARK  121  A    between atoms: _298  and  _299
REMARK  122  A    between atoms: _299  and  _300
REMARK  123  A    between atoms: _305  and  _306
REMARK  124  A    between atoms: _311  and  _313
REMARK  125  A    between atoms: _313  and  _314
REMARK  126  A    between atoms: _313  and  _316
REMARK  127  A    between atoms: _316  and  _317
REMARK  128  A    between atoms: _322  and  _324
REMARK  129  A    between atoms: _324  and  _325
REMARK  130  A    between atoms: _324  and  _327
REMARK  131  A    between atoms: _327  and  _328
REMARK  132  A    between atoms: _331  and  _333
REMARK  133  A    between atoms: _333  and  _334
REMARK  134  A    between atoms: _333  and  _336
REMARK  135  A    between atoms: _339  and  _341
REMARK  136  A    between atoms: _341  and  _342
REMARK  137  A    between atoms: _344  and  _346
REMARK  138  A    between atoms: _346  and  _347
REMARK  139  A    between atoms: _346  and  _349
REMARK  140  A    between atoms: _349  and  _350
REMARK  141  A    between atoms: _350  and  _351
REMARK  142  A    between atoms: _351  and  _352
REMARK  143  A    between atoms: _352  and  _353
REMARK  144  A    between atoms: _357  and  _359
REMARK  145  A    between atoms: _359  and  _360
REMARK  146  A    between atoms: _359  and  _362
REMARK  147  A    between atoms: _362  and  _363
REMARK  148  A    between atoms: _366  and  _368
REMARK  149  A    between atoms: _368  and  _369
REMARK  150  A    between atoms: _372  and  _374
REMARK  151  A    between atoms: _374  and  _375
REMARK  152  A    between atoms: _377  and  _379
REMARK  153  A    between atoms: _379  and  _380
REMARK  154  A    between atoms: _379  and  _382
REMARK  155  A    between atoms: _382  and  _383
REMARK  156  A    between atoms: _386  and  _388
REMARK  157  A    between atoms: _388  and  _389
REMARK  158  A    between atoms: _388  and  _391
REMARK  159  A    between atoms: _391  and  _392
REMARK  160  A    between atoms: _395  and  _397
REMARK  161  A    between atoms: _397  and  _398
REMARK  162  A    between atoms: _401  and  _403
REMARK  163  A    between atoms: _403  and  _404
REMARK  164  A    between atoms: _403  and  _406
REMARK  165  A    between atoms: _406  and  _407
REMARK  166  A    between atoms: _407  and  _408
REMARK  167  A    between atoms: _411  and  _413
REMARK  168  A    between atoms: _413  and  _414
REMARK  169  A    between atoms: _413  and  _416
REMARK  170  A    between atoms: _419  and  _421
REMARK  171  A    between atoms: _421  and  _422
REMARK  172  A    between atoms: _421  and  _424
REMARK  173  A    between atoms: _424  and  _425
REMARK  174  A    between atoms: _428  and  _430
REMARK  175  A    between atoms: _430  and  _431
REMARK  176  A    between atoms: _433  and  _435
REMARK  177  A    between atoms: _435  and  _436
REMARK  178  A    between atoms: _435  and  _438
REMARK  179  A    between atoms: _441  and  _443
REMARK  180  A    between atoms: _443  and  _444
REMARK  181  A    between atoms: _446  and  _448
REMARK  182  A    between atoms: _448  and  _449
REMARK  183  A    between atoms: _448  and  _451
REMARK  184  A    between atoms: _451  and  _452
REMARK  185  A    between atoms: _455  and  _457
REMARK  186  A    between atoms: _457  and  _458
REMARK  187  A    between atoms: _457  and  _460
REMARK  188  A    between atoms: _460  and  _461
REMARK  189  A    between atoms: _466  and  _468
REMARK  190  A    between atoms: _468  and  _469
REMARK  191  A    between atoms: _468  and  _471
REMARK  192  A    between atoms: _474  and  _476
REMARK  193  A    between atoms: _476  and  _477
REMARK  194  A    between atoms: _476  and  _479
REMARK  195  A    between atoms: _479  and  _480
REMARK  196  A    between atoms: _480  and  _481
REMARK  197  A    between atoms: _486  and  _488
REMARK  198  A    between atoms: _488  and  _489
REMARK  199  A    between atoms: _493  and  _494
REMARK  200  A    between atoms: _499  and  _501
REMARK  201  A    between atoms: _501  and  _502
REMARK  202  A    between atoms: _501  and  _504
REMARK  203  A    between atoms: _504  and  _505
REMARK  204  A    between atoms: _505  and  _506
REMARK  205  A    between atoms: _509  and  _511
REMARK  206  A    between atoms: _511  and  _512
REMARK  207  A    between atoms: _511  and  _514
REMARK  208  A    between atoms: _517  and  _519
REMARK  209  A    between atoms: _519  and  _520
REMARK  210  A    between atoms: _519  and  _522
REMARK  211  A    between atoms: _522  and  _523
REMARK  212  A    between atoms: _527  and  _528
REMARK  213  A    between atoms: _533  and  _535
REMARK  214  A    between atoms: _535  and  _536
REMARK  215  A    between atoms: _535  and  _538
REMARK  216  A    between atoms: _538  and  _539
REMARK  217  A    between atoms: _542  and  _544
REMARK  218  A    between atoms: _544  and  _545
REMARK  219  A    between atoms: _548  and  _550
REMARK  220  A    between atoms: _550  and  _551
REMARK  221  A    between atoms: _550  and  _553
REMARK  222  A    between atoms: _553  and  _554
REMARK  223  A    between atoms: _557  and  _559
REMARK  224  A    between atoms: _559  and  _560
REMARK  225  A    between atoms: _559  and  _562
REMARK  226  A    between atoms: _562  and  _563
REMARK  227  A    between atoms: _565  and  _567
REMARK  228  A    between atoms: _567  and  _568
REMARK  229  A    between atoms: _570  and  _572
REMARK  230  A    between atoms: _572  and  _573
REMARK  231  A    between atoms: _572  and  _575
REMARK  232  A    between atoms: _575  and  _576
REMARK  233  A    between atoms: _579  and  _581
REMARK  234  A    between atoms: _581  and  _582
REMARK  235  A    between atoms: _581  and  _584
REMARK                            x       y       z     vdW  Elec       q    Type
REMARK                         _______ _______ _______ _____ _____    ______ ____
ROOT
ATOM      1  CA  SER A   1      -8.070 -16.656   6.160  0.00  0.00    +0.163 C 
ENDROOT
BRANCH   1   2
ATOM      2  N   SER A   1      -8.016 -18.056   5.753  0.00  0.00    -0.237 NA
ATOM      3  H   SER A   1      -7.556 -18.305   4.854  0.00  0.00    +0.142 HD
ENDBRANCH   1   2
BRANCH   1   4
ATOM      4  CB  SER A   1      -9.481 -16.090   6.023  0.00  0.00    +0.227 C 
ATOM      5  OG  SER A   1      -9.918 -15.284   6.845  0.00  0.00    -0.287 OA
ENDBRANCH   1   4
BRANCH   1   6
ATOM      6  C   SER A   1      -7.088 -15.820   5.338  0.00  0.00    +0.162 C 
BRANCH   6   7
ATOM      7  O   SER A   1      -7.167 -14.450   5.693  0.00  0.00    -0.380 OA
ATOM      8  H   SER A   1      -6.523 -13.931   5.148  0.00  0.00    +0.211 HD
ENDBRANCH   6   7
ENDBRANCH   1   6
TORSDOF 4
REMARK  Name = ../refined-set-2016/4xtw/4xtw_pocket.pdb
REMARK  235 active torsions:
REMARK  status: ('A' for Active; 'I' for Inactive)
REMARK    1  A    between atoms: _1  and  _3
REMARK    2  A    between atoms: _3  and  _4
REMARK    3  A    between atoms: _3  and  _6
REMARK    4  A    between atoms: _6  and  _7
REMARK    5  A    between atoms: _10  and  _12
REMARK    6  A    between atoms: _12  and  _13
REMARK    7  A    between atoms: _15  and  _17
REMARK    8  A    between atoms: _17  and  _18
REMARK    9  A    between atoms: _17  and  _20
REMARK   10  A    between atoms: _20  and  _21
REMARK   11  A    between atoms: _23  and  _25
REMARK   12  A    between atoms: _25  and  _26
REMARK   13  A    between atoms: _25  and  _28
REMARK   14  A    between atoms: _28  and  _29
REMARK   15  A    between atoms: _32  and  _34
REMARK   16  A    between atoms: _34  and  _35
REMARK   17  A    between atoms: _34  and  _37
REMARK   18  A    between atoms: _37  and  _38
REMARK   19  A    between atoms: _43  and  _45
REMARK   20  A    between atoms: _45  and  _46
REMARK   21  A    between atoms: _49  and  _51
REMARK   22  A    between atoms: _51  and  _52
REMARK   23  A    between atoms: _51  and  _54
REMARK   24  A    between atoms: _54  and  _55
REMARK   25  A    between atoms: _58  and  _60
REMARK   26  A    between atoms: _60  and  _61
REMARK   27  A    between atoms: _60  and  _63
REMARK   28  A    between atoms: _63  and  _64
REMARK   29  A    between atoms: _67  and  _69
REMARK   30  A    between atoms: _69  and  _70
REMARK   31  A    between atoms: _69  and  _72
REMARK   32  A    between atoms: _72  and  _73
REMARK   33  A    between atoms: _76  and  _78
REMARK   34  A    between atoms: _78  and  _79
REMARK   35  A    between atoms: _82  and  _84
REMARK   36  A    between atoms: _84  and  _85
REMARK   37  A    between atoms: _84  and  _87
REMARK   38  A    between atoms: _87  and  _88
REMARK   39  A    between atoms: _88  and  _89
REMARK   40  A    between atoms: _94  and  _96
REMARK   41  A    between atoms: _96  and  _97
REMARK   42  A    between atoms: _96  and  _99
REMARK   43  A    between atoms: _99  and  _100
REMARK   44  A    between atoms: _103  and  _105
REMARK   45  A    between atoms: _105  and  _106
REMARK   46  A    between atoms: _109  and  _111
REMARK   47  A    between atoms: _111  and  _112
REMARK   48  A    between atoms: _114  and  _116
REMARK   49  A    between atoms: _116  and  _117
REMARK   50  A    between atoms: _116  and  _119
REMARK   51  A    between atoms: _119  and  _120
REMARK   52  A    between atoms: _120  and  _121
REMARK   53  A    between atoms: _121  and  _122
REMARK   54  A    between atoms: _131  and  _133
REMARK   55  A    between atoms: _133  and  _134
REMARK   56  A    between atoms: _136  and  _138
REMARK   57  A    between atoms: _138  and  _139
REMARK   58  A    between atoms: _138  and  _141
REMARK   59  A    between atoms: _141  and  _142
REMARK   60  A    between atoms: _142  and  _143
REMARK   61  A    between atoms: _143  and  _144
REMARK   62  A    between atoms: _153  and  _155
REMARK   63  A    between atoms: _155  and  _156
REMARK   64  A    between atoms: _155  and  _158
REMARK   65  A    between atoms: _158  and  _159
REMARK   66  A    between atoms: _164  and  _166
REMARK   67  A    between atoms: _166  and  _167
REMARK   68  A    between atoms: _169  and  _171
REMARK   69  A    between atoms: _171  and  _172
REMARK   70  A    between atoms: _171  and  _174
REMARK   71  A    between atoms: _174  and  _175
REMARK   72  A    between atoms: _175  and  _176
REMARK   73  A    between atoms: _176  and  _177
REMARK   74  A    between atoms: _186  and  _188
REMARK   75  A    between atoms: _188  and  _189
REMARK   76  A    between atoms: _191  and  _193
REMARK   77  A    between atoms: _193  and  _194
REMARK   78  A    between atoms: _193  and  _196
REMARK   79  A    between atoms: _196  and  _197
REMARK   80  A    between atoms: _207  and  _209
REMARK   81  A    between atoms: _209  and  _210
REMARK   82  A    between atoms: _213  and  _215
REMARK   83  A    between atoms: _215  and  _216
REMARK   84  A    between atoms: _219  and  _221
REMARK   85  A    between atoms: _221  and  _222
REMARK   86  A    between atoms: _221  and  _224
REMARK   87  A    between atoms: _224  and  _225
REMARK   88  A    between atoms: _228  and  _230
REMARK   89  A    between atoms: _230  and  _231
REMARK   90  A    between atoms: _230  and  _233
REMARK   91  A    between atoms: _233  and  _234
REMARK   92  A    between atoms: _234  and  _235
REMARK   93  A    between atoms: _240  and  _242
REMARK   94  A    between atoms: _242  and  _243
REMARK   95  A    between atoms: _242  and  _245
REMARK   96  A    between atoms: _245  and  _246
REMARK   97  A    between atoms: _249  and  _251
REMARK   98  A    between atoms: _251  and  _252
REMARK   99  A    between atoms: _251  and  _254
REMARK  100  A    between atoms: _254  and  _255
REMARK  101  A    between atoms: _258  and  _260
REMARK  102  A    between atoms: _260  and  _261
REMARK  103  A    between atoms: _260  and  _263
REMARK  104  A    between atoms: _263  and  _264
REMARK  105  A    between atoms: _267  and  _269
REMARK  106  A    between atoms: _269  and  _270
REMARK  107  A    between atoms: _269  and  _272
REMARK  108  A    between atoms: _272  and  _273
REMARK  109  A    between atoms: _275  and  _277
REMARK  110  A    between atoms: _277  and  _278
REMARK  111  A    between atoms: _277  and  _280
REMARK  112  A    between atoms: _283  and  _285
REMARK  113  A    between atoms: _285  and  _286
REMARK  114  A    between atoms: _285  and  _288
REMARK  115  A    between atoms: _288  and  _289
REMARK  116  A    between atoms: _291  and  _293
REMARK  117  A    between atoms: _293  and  _294
REMARK  118  A    between atoms: _293  and  _296
REMARK  119  A    between atoms: _296  and  _297
REMARK  120  A    between atoms: _297  and  _298
REMARK  121  A    between atoms: _298  and  _299
REMARK  122  A    between atoms: _299  and  _300
REMARK  123  A    between atoms: _305  and  _306
REMARK  124  A    between atoms: _311  and  _313
REMARK  125  A    between atoms: _313  and  _314
REMARK  126  A    between atoms: _313  and  _316
REMARK  127  A    between atoms: _316  and  _317
REMARK  128  A    between atoms: _322  and  _324
REMARK  129  A    between atoms: _324  and  _325
REMARK  130  A    between atoms: _324  and  _327
REMARK  131  A    between atoms: _327  and  _328
REMARK  132  A    between atoms: _331  and  _333
REMARK  133  A    between atoms: _333  and  _334
REMARK  134  A    between atoms: _333  and  _336
REMARK  135  A    between atoms: _339  and  _341
REMARK  136  A    between atoms: _341  and  _342
REMARK  137  A    between atoms: _344  and  _346
REMARK  138  A    between atoms: _346  and  _347
REMARK  139  A    between atoms: _346  and  _349
REMARK  140  A    between atoms: _349  and  _350
REMARK  141  A    between atoms: _350  and  _351
REMARK  142  A    between atoms: _351  and  _352
REMARK  143  A    between atoms: _352  and  _353
REMARK  144  A    between atoms: _357  and  _359
REMARK  145  A    between atoms: _359  and  _360
REMARK  146  A    between atoms: _359  and  _362
REMARK  147  A    between atoms: _362  and  _363
REMARK  148  A    between atoms: _366  and  _368
REMARK  149  A    between atoms: _368  and  _369
REMARK  150  A    between atoms: _372  and  _374
REMARK  151  A    between atoms: _374  and  _375
REMARK  152  A    between atoms: _377  and  _379
REMARK  153  A    between atoms: _379  and  _380
REMARK  154  A    between atoms: _379  and  _382
REMARK  155  A    between atoms: _382  and  _383
REMARK  156  A    between atoms: _386  and  _388
REMARK  157  A    between atoms: _388  and  _389
REMARK  158  A    between atoms: _388  and  _391
REMARK  159  A    between atoms: _391  and  _392
REMARK  160  A    between atoms: _395  and  _397
REMARK  161  A    between atoms: _397  and  _398
REMARK  162  A    between atoms: _401  and  _403
REMARK  163  A    between atoms: _403  and  _404
REMARK  164  A    between atoms: _403  and  _406
REMARK  165  A    between atoms: _406  and  _407
REMARK  166  A    between atoms: _407  and  _408
REMARK  167  A    between atoms: _411  and  _413
REMARK  168  A    between atoms: _413  and  _414
REMARK  169  A    between atoms: _413  and  _416
REMARK  170  A    between atoms: _419  and  _421
REMARK  171  A    between atoms: _421  and  _422
REMARK  172  A    between atoms: _421  and  _424
REMARK  173  A    between atoms: _424  and  _425
REMARK  174  A    between atoms: _428  and  _430
REMARK  175  A    between atoms: _430  and  _431
REMARK  176  A    between atoms: _433  and  _435
REMARK  177  A    between atoms: _435  and  _436
REMARK  178  A    between atoms: _435  and  _438
REMARK  179  A    between atoms: _441  and  _443
REMARK  180  A    between atoms: _443  and  _444
REMARK  181  A    between atoms: _446  and  _448
REMARK  182  A    between atoms: _448  and  _449
REMARK  183  A    between atoms: _448  and  _451
REMARK  184  A    between atoms: _451  and  _452
REMARK  185  A    between atoms: _455  and  _457
REMARK  186  A    between atoms: _457  and  _458
REMARK  187  A    between atoms: _457  and  _460
REMARK  188  A    between atoms: _460  and  _461
REMARK  189  A    between atoms: _466  and  _468
REMARK  190  A    between atoms: _468  and  _469
REMARK  191  A    between atoms: _468  and  _471
REMARK  192  A    between atoms: _474  and  _476
REMARK  193  A    between atoms: _476  and  _477
REMARK  194  A    between atoms: _476  and  _479
REMARK  195  A    between atoms: _479  and  _480
REMARK  196  A    between atoms: _480  and  _481
REMARK  197  A    between atoms: _486  and  _488
REMARK  198  A    between atoms: _488  and  _489
REMARK  199  A    between atoms: _493  and  _494
REMARK  200  A    between atoms: _499  and  _501
REMARK  201  A    between atoms: _501  and  _502
REMARK  202  A    between atoms: _501  and  _504
REMARK  203  A    between atoms: _504  and  _505
REMARK  204  A    between atoms: _505  and  _506
REMARK  205  A    between atoms: _509  and  _511
REMARK  206  A    between atoms: _511  and  _512
REMARK  207  A    between atoms: _511  and  _514
REMARK  208  A    between atoms: _517  and  _519
REMARK  209  A    between atoms: _519  and  _520
REMARK  210  A    between atoms: _519  and  _522
REMARK  211  A    between atoms: _522  and  _523
REMARK  212  A    between atoms: _527  and  _528
REMARK  213  A    between atoms: _533  and  _535
REMARK  214  A    between atoms: _535  and  _536
REMARK  215  A    between atoms: _535  and  _538
REMARK  216  A    between atoms: _538  and  _539
REMARK  217  A    between atoms: _542  and  _544
REMARK  218  A    between atoms: _544  and  _545
REMARK  219  A    between atoms: _548  and  _550
REMARK  220  A    between atoms: _550  and  _551
REMARK  221  A    between atoms: _550  and  _553
REMARK  222  A    between atoms: _553  and  _554
REMARK  223  A    between atoms: _557  and  _559
REMARK  224  A    between atoms: _559  and  _560
REMARK  225  A    between atoms: _559  and  _562
REMARK  226  A    between atoms: _562  and  _563
REMARK  227  A    between atoms: _565  and  _567
REMARK  228  A    between atoms: _567  and  _568
REMARK  229  A    between atoms: _570  and  _572
REMARK  230  A    between atoms: _572  and  _573
REMARK  231  A    between atoms: _572  and  _575
REMARK  232  A    between atoms: _575  and  _576
REMARK  233  A    between atoms: _579  and  _581
REMARK  234  A    between atoms: _581  and  _582
REMARK  235  A    between atoms: _581  and  _584
REMARK                            x       y       z     vdW  Elec       q    Type
REMARK                         _______ _______ _______ _____ _____    ______ ____
ROOT
ATOM      1  CG  LYS A   1     -13.252  -5.132   1.518  0.00  0.00    -0.000 C 
ENDROOT
BRANCH   1   2
ATOM      2  CB  LYS A   1     -13.932  -5.663   2.776  0.00  0.00    +0.025 C 
BRANCH   2   3
ATOM      3  CA  LYS A   1     -14.419  -7.108   2.636  0.00  0.00    +0.133 C 
BRANCH   3   4
ATOM      4  N   LYS A   1     -15.076  -7.572   3.848  0.00  0.00    -0.239 NA
ATOM      5  H   LYS A   1     -14.668  -7.336   4.775  0.00  0.00    +0.142 HD
ENDBRANCH   3   4
BRANCH   3   6
ATOM      6  C   LYS A   1     -13.254  -8.033   2.324  0.00  0.00    +0.224 C 
ATOM      7  O   LYS A   1     -12.437  -8.328   3.195  0.00  0.00    -0.287 OA
ENDBRANCH   3   6
ENDBRANCH   2   3
ENDBRANCH   1   2
BRANCH   1   8
ATOM      8  CD  LYS A   1     -13.047  -3.623   1.562  0.00  0.00    -0.024 C 
BRANCH   8   9
ATOM      9  CE  LYS A   1     -11.900  -3.234   2.480  0.00  0.00    -0.086 C 
BRANCH   9  10
ATOM     10  NZ  LYS A   1     -11.585  -1.782   2.371  0.00  0.00    +0.380 N 
ATOM     11  HZ1 LYS A   1     -10.798  -1.550   3.010  0.00  0.00    -0.089 HD
ATOM     12  HZ2 LYS A   1     -12.423  -1.226   2.635  0.00  0.00    -0.089 HD
ATOM     13  HZ3 LYS A   1     -11.315  -1.560   1.392  0.00  0.00    -0.089 HD
ENDBRANCH   9  10
ENDBRANCH   8   9
ENDBRANCH   1   8
TORSDOF 7
REMARK  Name = ../refined-set-2016/4xtw/4xtw_pocket.pdb
REMARK  235 active torsions:
REMARK  status: ('A' for Active; 'I' for Inactive)
REMARK    1  A    between atoms: _1  and  _3
REMARK    2  A    between atoms: _3  and  _4
REMARK    3  A    between atoms: _3  and  _6
REMARK    4  A    between atoms: _6  and  _7
REMARK    5  A    between atoms: _10  and  _12
REMARK    6  A    between atoms: _12  and  _13
REMARK    7  A    between atoms: _15  and  _17
REMARK    8  A    between atoms: _17  and  _18
REMARK    9  A    between atoms: _17  and  _20
REMARK   10  A    between atoms: _20  and  _21
REMARK   11  A    between atoms: _23  and  _25
REMARK   12  A    between atoms: _25  and  _26
REMARK   13  A    between atoms: _25  and  _28
REMARK   14  A    between atoms: _28  and  _29
REMARK   15  A    between atoms: _32  and  _34
REMARK   16  A    between atoms: _34  and  _35
REMARK   17  A    between atoms: _34  and  _37
REMARK   18  A    between atoms: _37  and  _38
REMARK   19  A    between atoms: _43  and  _45
REMARK   20  A    between atoms: _45  and  _46
REMARK   21  A    between atoms: _49  and  _51
REMARK   22  A    between atoms: _51  and  _52
REMARK   23  A    between atoms: _51  and  _54
REMARK   24  A    between atoms: _54  and  _55
REMARK   25  A    between atoms: _58  and  _60
REMARK   26  A    between atoms: _60  and  _61
REMARK   27  A    between atoms: _60  and  _63
REMARK   28  A    between atoms: _63  and  _64
REMARK   29  A    between atoms: _67  and  _69
REMARK   30  A    between atoms: _69  and  _70
REMARK   31  A    between atoms: _69  and  _72
REMARK   32  A    between atoms: _72  and  _73
REMARK   33  A    between atoms: _76  and  _78
REMARK   34  A    between atoms: _78  and  _79
REMARK   35  A    between atoms: _82  and  _84
REMARK   36  A    between atoms: _84  and  _85
REMARK   37  A    between atoms: _84  and  _87
REMARK   38  A    between atoms: _87  and  _88
REMARK   39  A    between atoms: _88  and  _89
REMARK   40  A    between atoms: _94  and  _96
REMARK   41  A    between atoms: _96  and  _97
REMARK   42  A    between atoms: _96  and  _99
REMARK   43  A    between atoms: _99  and  _100
REMARK   44  A    between atoms: _103  and  _105
REMARK   45  A    between atoms: _105  and  _106
REMARK   46  A    between atoms: _109  and  _111
REMARK   47  A    between atoms: _111  and  _112
REMARK   48  A    between atoms: _114  and  _116
REMARK   49  A    between atoms: _116  and  _117
REMARK   50  A    between atoms: _116  and  _119
REMARK   51  A    between atoms: _119  and  _120
REMARK   52  A    between atoms: _120  and  _121
REMARK   53  A    between atoms: _121  and  _122
REMARK   54  A    between atoms: _131  and  _133
REMARK   55  A    between atoms: _133  and  _134
REMARK   56  A    between atoms: _136  and  _138
REMARK   57  A    between atoms: _138  and  _139
REMARK   58  A    between atoms: _138  and  _141
REMARK   59  A    between atoms: _141  and  _142
REMARK   60  A    between atoms: _142  and  _143
REMARK   61  A    between atoms: _143  and  _144
REMARK   62  A    between atoms: _153  and  _155
REMARK   63  A    between atoms: _155  and  _156
REMARK   64  A    between atoms: _155  and  _158
REMARK   65  A    between atoms: _158  and  _159
REMARK   66  A    between atoms: _164  and  _166
REMARK   67  A    between atoms: _166  and  _167
REMARK   68  A    between atoms: _169  and  _171
REMARK   69  A    between atoms: _171  and  _172
REMARK   70  A    between atoms: _171  and  _174
REMARK   71  A    between atoms: _174  and  _175
REMARK   72  A    between atoms: _175  and  _176
REMARK   73  A    between atoms: _176  and  _177
REMARK   74  A    between atoms: _186  and  _188
REMARK   75  A    between atoms: _188  and  _189
REMARK   76  A    between atoms: _191  and  _193
REMARK   77  A    between atoms: _193  and  _194
REMARK   78  A    between atoms: _193  and  _196
REMARK   79  A    between atoms: _196  and  _197
REMARK   80  A    between atoms: _207  and  _209
REMARK   81  A    between atoms: _209  and  _210
REMARK   82  A    between atoms: _213  and  _215
REMARK   83  A    between atoms: _215  and  _216
REMARK   84  A    between atoms: _219  and  _221
REMARK   85  A    between atoms: _221  and  _222
REMARK   86  A    between atoms: _221  and  _224
REMARK   87  A    between atoms: _224  and  _225
REMARK   88  A    between atoms: _228  and  _230
REMARK   89  A    between atoms: _230  and  _231
REMARK   90  A    between atoms: _230  and  _233
REMARK   91  A    between atoms: _233  and  _234
REMARK   92  A    between atoms: _234  and  _235
REMARK   93  A    between atoms: _240  and  _242
REMARK   94  A    between atoms: _242  and  _243
REMARK   95  A    between atoms: _242  and  _245
REMARK   96  A    between atoms: _245  and  _246
REMARK   97  A    between atoms: _249  and  _251
REMARK   98  A    between atoms: _251  and  _252
REMARK   99  A    between atoms: _251  and  _254
REMARK  100  A    between atoms: _254  and  _255
REMARK  101  A    between atoms: _258  and  _260
REMARK  102  A    between atoms: _260  and  _261
REMARK  103  A    between atoms: _260  and  _263
REMARK  104  A    between atoms: _263  and  _264
REMARK  105  A    between atoms: _267  and  _269
REMARK  106  A    between atoms: _269  and  _270
REMARK  107  A    between atoms: _269  and  _272
REMARK  108  A    between atoms: _272  and  _273
REMARK  109  A    between atoms: _275  and  _277
REMARK  110  A    between atoms: _277  and  _278
REMARK  111  A    between atoms: _277  and  _280
REMARK  112  A    between atoms: _283  and  _285
REMARK  113  A    between atoms: _285  and  _286
REMARK  114  A    between atoms: _285  and  _288
REMARK  115  A    between atoms: _288  and  _289
REMARK  116  A    between atoms: _291  and  _293
REMARK  117  A    between atoms: _293  and  _294
REMARK  118  A    between atoms: _293  and  _296
REMARK  119  A    between atoms: _296  and  _297
REMARK  120  A    between atoms: _297  and  _298
REMARK  121  A    between atoms: _298  and  _299
REMARK  122  A    between atoms: _299  and  _300
REMARK  123  A    between atoms: _305  and  _306
REMARK  124  A    between atoms: _311  and  _313
REMARK  125  A    between atoms: _313  and  _314
REMARK  126  A    between atoms: _313  and  _316
REMARK  127  A    between atoms: _316  and  _317
REMARK  128  A    between atoms: _322  and  _324
REMARK  129  A    between atoms: _324  and  _325
REMARK  130  A    between atoms: _324  and  _327
REMARK  131  A    between atoms: _327  and  _328
REMARK  132  A    between atoms: _331  and  _333
REMARK  133  A    between atoms: _333  and  _334
REMARK  134  A    between atoms: _333  and  _336
REMARK  135  A    between atoms: _339  and  _341
REMARK  136  A    between atoms: _341  and  _342
REMARK  137  A    between atoms: _344  and  _346
REMARK  138  A    between atoms: _346  and  _347
REMARK  139  A    between atoms: _346  and  _349
REMARK  140  A    between atoms: _349  and  _350
REMARK  141  A    between atoms: _350  and  _351
REMARK  142  A    between atoms: _351  and  _352
REMARK  143  A    between atoms: _352  and  _353
REMARK  144  A    between atoms: _357  and  _359
REMARK  145  A    between atoms: _359  and  _360
REMARK  146  A    between atoms: _359  and  _362
REMARK  147  A    between atoms: _362  and  _363
REMARK  148  A    between atoms: _366  and  _368
REMARK  149  A    between atoms: _368  and  _369
REMARK  150  A    between atoms: _372  and  _374
REMARK  151  A    between atoms: _374  and  _375
REMARK  152  A    between atoms: _377  and  _379
REMARK  153  A    between atoms: _379  and  _380
REMARK  154  A    between atoms: _379  and  _382
REMARK  155  A    between atoms: _382  and  _383
REMARK  156  A    between atoms: _386  and  _388
REMARK  157  A    between atoms: _388  and  _389
REMARK  158  A    between atoms: _388  and  _391
REMARK  159  A    between atoms: _391  and  _392
REMARK  160  A    between atoms: _395  and  _397
REMARK  161  A    between atoms: _397  and  _398
REMARK  162  A    between atoms: _401  and  _403
REMARK  163  A    between atoms: _403  and  _404
REMARK  164  A    between atoms: _403  and  _406
REMARK  165  A    between atoms: _406  and  _407
REMARK  166  A    between atoms: _407  and  _408
REMARK  167  A    between atoms: _411  and  _413
REMARK  168  A    between atoms: _413  and  _414
REMARK  169  A    between atoms: _413  and  _416
REMARK  170  A    between atoms: _419  and  _421
REMARK  171  A    between atoms: _421  and  _422
REMARK  172  A    between atoms: _421  and  _424
REMARK  173  A    between atoms: _424  and  _425
REMARK  174  A    between atoms: _428  and  _430
REMARK  175  A    between atoms: _430  and  _431
REMARK  176  A    between atoms: _433  and  _435
REMARK  177  A    between atoms: _435  and  _436
REMARK  178  A    between atoms: _435  and  _438
REMARK  179  A    between atoms: _441  and  _443
REMARK  180  A    between atoms: _443  and  _444
REMARK  181  A    between atoms: _446  and  _448
REMARK  182  A    between atoms: _448  and  _449
REMARK  183  A    between atoms: _448  and  _451
REMARK  184  A    between atoms: _451  and  _452
REMARK  185  A    between atoms: _455  and  _457
REMARK  186  A    between atoms: _457  and  _458
REMARK  187  A    between atoms: _457  and  _460
REMARK  188  A    between atoms: _460  and  _461
REMARK  189  A    between atoms: _466  and  _468
REMARK  190  A    between atoms: _468  and  _469
REMARK  191  A    between atoms: _468  and  _471
REMARK  192  A    between atoms: _474  and  _476
REMARK  193  A    between atoms: _476  and  _477
REMARK  194  A    between atoms: _476  and  _479
REMARK  195  A    between atoms: _479  and  _480
REMARK  196  A    between atoms: _480  and  _481
REMARK  197  A    between atoms: _486  and  _488
REMARK  198  A    between atoms: _488  and  _489
REMARK  199  A    between atoms: _493  and  _494
REMARK  200  A    between atoms: _499  and  _501
REMARK  201  A    between atoms: _501  and  _502
REMARK  202  A    between atoms: _501  and  _504
REMARK  203  A    between atoms: _504  and  _505
REMARK  204  A    between atoms: _505  and  _506
REMARK  205  A    between atoms: _509  and  _511
REMARK  206  A    between atoms: _511  and  _512
REMARK  207  A    between atoms: _511  and  _514
REMARK  208  A    between atoms: _517  and  _519
REMARK  209  A    between atoms: _519  and  _520
REMARK  210  A    between atoms: _519  and  _522
REMARK  211  A    between atoms: _522  and  _523
REMARK  212  A    between atoms: _527  and  _528
REMARK  213  A    between atoms: _533  and  _535
REMARK  214  A    between atoms: _535  and  _536
REMARK  215  A    between atoms: _535  and  _538
REMARK  216  A    between atoms: _538  and  _539
REMARK  217  A    between atoms: _542  and  _544
REMARK  218  A    between atoms: _544  and  _545
REMARK  219  A    between atoms: _548  and  _550
REMARK  220  A    between atoms: _550  and  _551
REMARK  221  A    between atoms: _550  and  _553
REMARK  222  A    between atoms: _553  and  _554
REMARK  223  A    between atoms: _557  and  _559
REMARK  224  A    between atoms: _559  and  _560
REMARK  225  A    between atoms: _559  and  _562
REMARK  226  A    between atoms: _562  and  _563
REMARK  227  A    between atoms: _565  and  _567
REMARK  228  A    between atoms: _567  and  _568
REMARK  229  A    between atoms: _570  and  _572
REMARK  230  A    between atoms: _572  and  _573
REMARK  231  A    between atoms: _572  and  _575
REMARK  232  A    between atoms: _575  and  _576
REMARK  233  A    between atoms: _579  and  _581
REMARK  234  A    between atoms: _581  and  _582
REMARK  235  A    between atoms: _581  and  _584
REMARK                            x       y       z     vdW  Elec       q    Type
REMARK                         _______ _______ _______ _____ _____    ______ ____
ROOT
ATOM      1  C   ASN A   2      -9.783  -8.993   6.329  0.00  0.00    +0.241 C 
ATOM      2  O   ASN A   2      -9.276  -8.677   7.406  0.00  0.00    -0.273 OA
ATOM      3  N   ASP A   3     -10.881  -8.409   5.857  0.00  0.00    -0.297 N 
ATOM      4  H   ASP A   3     -11.348  -8.793   5.011  0.00  0.00    +0.150 HD
ENDROOT
BRANCH   1   5
ATOM      5  CA  ASN A   2      -9.156 -10.098   5.483  0.00  0.00    +0.158 C 
BRANCH   5   7
ATOM      6  C   PRO A   1      -9.958 -10.853   3.310  0.00  0.00    +0.239 C 
ATOM      7  N   ASN A   2      -9.326  -9.941   4.041  0.00  0.00    -0.297 N 
ATOM      8  H   ASN A   2      -8.943  -9.094   3.575  0.00  0.00    +0.150 HD
ATOM      9  O   PRO A   1     -10.625 -11.763   3.800  0.00  0.00    -0.274 OA
BRANCH   6  11
ATOM     10  N   PRO A   1      -9.760  -9.370   1.271  0.00  0.00    -0.210 NA
ATOM     11  CA  PRO A   1      -9.845 -10.740   1.785  0.00  0.00    +0.149 C 
ATOM     12  CB  PRO A   1      -8.530 -11.361   1.305  0.00  0.00    +0.028 C 
ATOM     13  CG  PRO A   1      -7.575 -10.181   1.119  0.00  0.00    +0.021 C 
ATOM     14  CD  PRO A   1      -8.367  -8.898   1.230  0.00  0.00    +0.089 C 
ENDBRANCH   6  11
ENDBRANCH   5   7
BRANCH   5  15
ATOM     15  CB  ASN A   2      -7.667 -10.174   5.811  0.00  0.00    +0.114 C 
BRANCH  15  16
ATOM     16  CG  ASN A   2      -6.939  -8.869   5.518  0.00  0.00    +0.222 C 
ATOM     17  ND2 ASN A   2      -5.977  -8.522   6.367  0.00  0.00    -0.329 N 
ATOM     18 HD21 ASN A   2      -5.750  -9.136   7.175  0.00  0.00    +0.145 HD
ATOM     19 HD22 ASN A   2      -5.452  -7.636   6.224  0.00  0.00    +0.145 HD
ATOM     20  OD1 ASN A   2      -7.247  -8.178   4.547  0.00  0.00    -0.275 OA
ENDBRANCH  15  16
ENDBRANCH   5  15
ENDBRANCH   1   5
BRANCH   3  21
ATOM     21  CA  ASP A   3     -11.435  -7.232   6.520  0.00  0.00    +0.160 C 
BRANCH  21  22
ATOM     22  C   ASP A   3     -12.868  -7.404   7.015  0.00  0.00    +0.241 C 
ATOM     23  N   VAL A   4     -13.070  -7.124   8.298  0.00  0.00    -0.298 N 
ATOM     24  H   VAL A   4     -12.248  -6.963   8.915  0.00  0.00    +0.150 HD
ATOM     25  O   ASP A   3     -13.764  -7.774   6.256  0.00  0.00    -0.273 OA
BRANCH  23  26
ATOM     26  CA  VAL A   4     -14.408  -7.036   8.866  0.00  0.00    +0.137 C 
BRANCH  26  27
ATOM     27  CB  VAL A   4     -14.486  -7.678  10.263  0.00  0.00    +0.026 C 
ATOM     28  CG2 VAL A   4     -15.862  -7.457  10.874  0.00  0.00    +0.002 C 
ATOM     29  CG1 VAL A   4     -14.162  -9.162  10.186  0.00  0.00    +0.002 C 
ENDBRANCH  26  27
BRANCH  26  30
ATOM     30  C   VAL A   4     -14.816  -5.570   8.951  0.00  0.00    +0.227 C 
ATOM     31  O   VAL A   4     -14.242  -4.804   9.728  0.00  0.00    -0.286 OA
ENDBRANCH  26  30
ENDBRANCH  23  26
ENDBRANCH  21  22
BRANCH  21  32
ATOM     32  CB  ASP A   3     -11.370  -6.026   5.580  0.00  0.00    +0.143 C 
BRANCH  32  33
ATOM     33  CG  ASP A   3      -9.993  -5.393   5.538  0.00  0.00    +0.367 C 
ATOM     34  OD2 ASP A   3      -9.005  -6.088   5.855  0.00  0.00    -0.246 OA
ATOM     35  OD1 ASP A   3      -9.899  -4.198   5.189  0.00  0.00    -0.246 OA
ENDBRANCH  32  33
ENDBRANCH  21  32
ENDBRANCH   3  21
TORSDOF 12
REMARK  Name = ../refined-set-2016/4xtw/4xtw_pocket.pdb
REMARK  235 active torsions:
REMARK  status: ('A' for Active; 'I' for Inactive)
REMARK    1  A    between atoms: _1  and  _3
REMARK    2  A    between atoms: _3  and  _4
REMARK    3  A    between atoms: _3  and  _6
REMARK    4  A    between atoms: _6  and  _7
REMARK    5  A    between atoms: _10  and  _12
REMARK    6  A    between atoms: _12  and  _13
REMARK    7  A    between atoms: _15  and  _17
REMARK    8  A    between atoms: _17  and  _18
REMARK    9  A    between atoms: _17  and  _20
REMARK   10  A    between atoms: _20  and  _21
REMARK   11  A    between atoms: _23  and  _25
REMARK   12  A    between atoms: _25  and  _26
REMARK   13  A    between atoms: _25  and  _28
REMARK   14  A    between atoms: _28  and  _29
REMARK   15  A    between atoms: _32  and  _34
REMARK   16  A    between atoms: _34  and  _35
REMARK   17  A    between atoms: _34  and  _37
REMARK   18  A    between atoms: _37  and  _38
REMARK   19  A    between atoms: _43  and  _45
REMARK   20  A    between atoms: _45  and  _46
REMARK   21  A    between atoms: _49  and  _51
REMARK   22  A    between atoms: _51  and  _52
REMARK   23  A    between atoms: _51  and  _54
REMARK   24  A    between atoms: _54  and  _55
REMARK   25  A    between atoms: _58  and  _60
REMARK   26  A    between atoms: _60  and  _61
REMARK   27  A    between atoms: _60  and  _63
REMARK   28  A    between atoms: _63  and  _64
REMARK   29  A    between atoms: _67  and  _69
REMARK   30  A    between atoms: _69  and  _70
REMARK   31  A    between atoms: _69  and  _72
REMARK   32  A    between atoms: _72  and  _73
REMARK   33  A    between atoms: _76  and  _78
REMARK   34  A    between atoms: _78  and  _79
REMARK   35  A    between atoms: _82  and  _84
REMARK   36  A    between atoms: _84  and  _85
REMARK   37  A    between atoms: _84  and  _87
REMARK   38  A    between atoms: _87  and  _88
REMARK   39  A    between atoms: _88  and  _89
REMARK   40  A    between atoms: _94  and  _96
REMARK   41  A    between atoms: _96  and  _97
REMARK   42  A    between atoms: _96  and  _99
REMARK   43  A    between atoms: _99  and  _100
REMARK   44  A    between atoms: _103  and  _105
REMARK   45  A    between atoms: _105  and  _106
REMARK   46  A    between atoms: _109  and  _111
REMARK   47  A    between atoms: _111  and  _112
REMARK   48  A    between atoms: _114  and  _116
REMARK   49  A    between atoms: _116  and  _117
REMARK   50  A    between atoms: _116  and  _119
REMARK   51  A    between atoms: _119  and  _120
REMARK   52  A    between atoms: _120  and  _121
REMARK   53  A    between atoms: _121  and  _122
REMARK   54  A    between atoms: _131  and  _133
REMARK   55  A    between atoms: _133  and  _134
REMARK   56  A    between atoms: _136  and  _138
REMARK   57  A    between atoms: _138  and  _139
REMARK   58  A    between atoms: _138  and  _141
REMARK   59  A    between atoms: _141  and  _142
REMARK   60  A    between atoms: _142  and  _143
REMARK   61  A    between atoms: _143  and  _144
REMARK   62  A    between atoms: _153  and  _155
REMARK   63  A    between atoms: _155  and  _156
REMARK   64  A    between atoms: _155  and  _158
REMARK   65  A    between atoms: _158  and  _159
REMARK   66  A    between atoms: _164  and  _166
REMARK   67  A    between atoms: _166  and  _167
REMARK   68  A    between atoms: _169  and  _171
REMARK   69  A    between atoms: _171  and  _172
REMARK   70  A    between atoms: _171  and  _174
REMARK   71  A    between atoms: _174  and  _175
REMARK   72  A    between atoms: _175  and  _176
REMARK   73  A    between atoms: _176  and  _177
REMARK   74  A    between atoms: _186  and  _188
REMARK   75  A    between atoms: _188  and  _189
REMARK   76  A    between atoms: _191  and  _193
REMARK   77  A    between atoms: _193  and  _194
REMARK   78  A    between atoms: _193  and  _196
REMARK   79  A    between atoms: _196  and  _197
REMARK   80  A    between atoms: _207  and  _209
REMARK   81  A    between atoms: _209  and  _210
REMARK   82  A    between atoms: _213  and  _215
REMARK   83  A    between atoms: _215  and  _216
REMARK   84  A    between atoms: _219  and  _221
REMARK   85  A    between atoms: _221  and  _222
REMARK   86  A    between atoms: _221  and  _224
REMARK   87  A    between atoms: _224  and  _225
REMARK   88  A    between atoms: _228  and  _230
REMARK   89  A    between atoms: _230  and  _231
REMARK   90  A    between atoms: _230  and  _233
REMARK   91  A    between atoms: _233  and  _234
REMARK   92  A    between atoms: _234  and  _235
REMARK   93  A    between atoms: _240  and  _242
REMARK   94  A    between atoms: _242  and  _243
REMARK   95  A    between atoms: _242  and  _245
REMARK   96  A    between atoms: _245  and  _246
REMARK   97  A    between atoms: _249  and  _251
REMARK   98  A    between atoms: _251  and  _252
REMARK   99  A    between atoms: _251  and  _254
REMARK  100  A    between atoms: _254  and  _255
REMARK  101  A    between atoms: _258  and  _260
REMARK  102  A    between atoms: _260  and  _261
REMARK  103  A    between atoms: _260  and  _263
REMARK  104  A    between atoms: _263  and  _264
REMARK  105  A    between atoms: _267  and  _269
REMARK  106  A    between atoms: _269  and  _270
REMARK  107  A    between atoms: _269  and  _272
REMARK  108  A    between atoms: _272  and  _273
REMARK  109  A    between atoms: _275  and  _277
REMARK  110  A    between atoms: _277  and  _278
REMARK  111  A    between atoms: _277  and  _280
REMARK  112  A    between atoms: _283  and  _285
REMARK  113  A    between atoms: _285  and  _286
REMARK  114  A    between atoms: _285  and  _288
REMARK  115  A    between atoms: _288  and  _289
REMARK  116  A    between atoms: _291  and  _293
REMARK  117  A    between atoms: _293  and  _294
REMARK  118  A    between atoms: _293  and  _296
REMARK  119  A    between atoms: _296  and  _297
REMARK  120  A    between atoms: _297  and  _298
REMARK  121  A    between atoms: _298  and  _299
REMARK  122  A    between atoms: _299  and  _300
REMARK  123  A    between atoms: _305  and  _306
REMARK  124  A    between atoms: _311  and  _313
REMARK  125  A    between atoms: _313  and  _314
REMARK  126  A    between atoms: _313  and  _316
REMARK  127  A    between atoms: _316  and  _317
REMARK  128  A    between atoms: _322  and  _324
REMARK  129  A    between atoms: _324  and  _325
REMARK  130  A    between atoms: _324  and  _327
REMARK  131  A    between atoms: _327  and  _328
REMARK  132  A    between atoms: _331  and  _333
REMARK  133  A    between atoms: _333  and  _334
REMARK  134  A    between atoms: _333  and  _336
REMARK  135  A    between atoms: _339  and  _341
REMARK  136  A    between atoms: _341  and  _342
REMARK  137  A    between atoms: _344  and  _346
REMARK  138  A    between atoms: _346  and  _347
REMARK  139  A    between atoms: _346  and  _349
REMARK  140  A    between atoms: _349  and  _350
REMARK  141  A    between atoms: _350  and  _351
REMARK  142  A    between atoms: _351  and  _352
REMARK  143  A    between atoms: _352  and  _353
REMARK  144  A    between atoms: _357  and  _359
REMARK  145  A    between atoms: _359  and  _360
REMARK  146  A    between atoms: _359  and  _362
REMARK  147  A    between atoms: _362  and  _363
REMARK  148  A    between atoms: _366  and  _368
REMARK  149  A    between atoms: _368  and  _369
REMARK  150  A    between atoms: _372  and  _374
REMARK  151  A    between atoms: _374  and  _375
REMARK  152  A    between atoms: _377  and  _379
REMARK  153  A    between atoms: _379  and  _380
REMARK  154  A    between atoms: _379  and  _382
REMARK  155  A    between atoms: _382  and  _383
REMARK  156  A    between atoms: _386  and  _388
REMARK  157  A    between atoms: _388  and  _389
REMARK  158  A    between atoms: _388  and  _391
REMARK  159  A    between atoms: _391  and  _392
REMARK  160  A    between atoms: _395  and  _397
REMARK  161  A    between atoms: _397  and  _398
REMARK  162  A    between atoms: _401  and  _403
REMARK  163  A    between atoms: _403  and  _404
REMARK  164  A    between atoms: _403  and  _406
REMARK  165  A    between atoms: _406  and  _407
REMARK  166  A    between atoms: _407  and  _408
REMARK  167  A    between atoms: _411  and  _413
REMARK  168  A    between atoms: _413  and  _414
REMARK  169  A    between atoms: _413  and  _416
REMARK  170  A    between atoms: _419  and  _421
REMARK  171  A    between atoms: _421  and  _422
REMARK  172  A    between atoms: _421  and  _424
REMARK  173  A    between atoms: _424  and  _425
REMARK  174  A    between atoms: _428  and  _430
REMARK  175  A    between atoms: _430  and  _431
REMARK  176  A    between atoms: _433  and  _435
REMARK  177  A    between atoms: _435  and  _436
REMARK  178  A    between atoms: _435  and  _438
REMARK  179  A    between atoms: _441  and  _443
REMARK  180  A    between atoms: _443  and  _444
REMARK  181  A    between atoms: _446  and  _448
REMARK  182  A    between atoms: _448  and  _449
REMARK  183  A    between atoms: _448  and  _451
REMARK  184  A    between atoms: _451  and  _452
REMARK  185  A    between atoms: _455  and  _457
REMARK  186  A    between atoms: _457  and  _458
REMARK  187  A    between atoms: _457  and  _460
REMARK  188  A    between atoms: _460  and  _461
REMARK  189  A    between atoms: _466  and  _468
REMARK  190  A    between atoms: _468  and  _469
REMARK  191  A    between atoms: _468  and  _471
REMARK  192  A    between atoms: _474  and  _476
REMARK  193  A    between atoms: _476  and  _477
REMARK  194  A    between atoms: _476  and  _479
REMARK  195  A    between atoms: _479  and  _480
REMARK  196  A    between atoms: _480  and  _481
REMARK  197  A    between atoms: _486  and  _488
REMARK  198  A    between atoms: _488  and  _489
REMARK  199  A    between atoms: _493  and  _494
REMARK  200  A    between atoms: _499  and  _501
REMARK  201  A    between atoms: _501  and  _502
REMARK  202  A    between atoms: _501  and  _504
REMARK  203  A    between atoms: _504  and  _505
REMARK  204  A    between atoms: _505  and  _506
REMARK  205  A    between atoms: _509  and  _511
REMARK  206  A    between atoms: _511  and  _512
REMARK  207  A    between atoms: _511  and  _514
REMARK  208  A    between atoms: _517  and  _519
REMARK  209  A    between atoms: _519  and  _520
REMARK  210  A    between atoms: _519  and  _522
REMARK  211  A    between atoms: _522  and  _523
REMARK  212  A    between atoms: _527  and  _528
REMARK  213  A    between atoms: _533  and  _535
REMARK  214  A    between atoms: _535  and  _536
REMARK  215  A    between atoms: _535  and  _538
REMARK  216  A    between atoms: _538  and  _539
REMARK  217  A    between atoms: _542  and  _544
REMARK  218  A    between atoms: _544  and  _545
REMARK  219  A    between atoms: _548  and  _550
REMARK  220  A    between atoms: _550  and  _551
REMARK  221  A    between atoms: _550  and  _553
REMARK  222  A    between atoms: _553  and  _554
REMARK  223  A    between atoms: _557  and  _559
REMARK  224  A    between atoms: _559  and  _560
REMARK  225  A    between atoms: _559  and  _562
REMARK  226  A    between atoms: _562  and  _563
REMARK  227  A    between atoms: _565  and  _567
REMARK  228  A    between atoms: _567  and  _568
REMARK  229  A    between atoms: _570  and  _572
REMARK  230  A    between atoms: _572  and  _573
REMARK  231  A    between atoms: _572  and  _575
REMARK  232  A    between atoms: _575  and  _576
REMARK  233  A    between atoms: _579  and  _581
REMARK  234  A    between atoms: _581  and  _582
REMARK  235  A    between atoms: _581  and  _584
REMARK                            x       y       z     vdW  Elec       q    Type
REMARK                         _______ _______ _______ _____ _____    ______ ____
ROOT
ATOM      1  CA  GLY A   5      -8.050  -7.266  10.461  0.00  0.00    +0.176 C 
ENDROOT
BRANCH   1   3
ATOM      2  C   ALA A   4     -10.177  -6.418  11.291  0.00  0.00    +0.241 C 
ATOM      3  N   GLY A   5      -8.938  -6.840  11.529  0.00  0.00    -0.295 N 
ATOM      4  H   GLY A   5      -8.594  -6.866  12.510  0.00  0.00    +0.150 HD
ATOM      5  O   ALA A   4     -10.651  -6.332  10.159  0.00  0.00    -0.273 OA
BRANCH   2   6
ATOM      6  CA  ALA A   4     -11.005  -6.043  12.519  0.00  0.00    +0.149 C 
ATOM      7  CB  ALA A   4     -11.675  -7.281  13.094  0.00  0.00    +0.031 C 
BRANCH   6  10
ATOM      8  C   LEU A   3     -12.518  -4.251  13.179  0.00  0.00    +0.241 C 
ATOM      9  O   LEU A   3     -12.165  -4.321  14.357  0.00  0.00    -0.273 OA
ATOM     10  N   ALA A   4     -12.004  -5.020  12.223  0.00  0.00    -0.297 N 
ATOM     11  H   ALA A   4     -12.321  -4.889  11.241  0.00  0.00    +0.150 HD
BRANCH   8  12
ATOM     12  CA  LEU A   3     -13.582  -3.245  12.746  0.00  0.00    +0.149 C 
BRANCH  12  15
ATOM     13  C   LYS A   2     -12.498  -1.784  11.121  0.00  0.00    +0.241 C 
ATOM     14  O   LYS A   2     -11.798  -1.245  11.980  0.00  0.00    -0.273 OA
ATOM     15  N   LEU A   3     -13.348  -2.768  11.389  0.00  0.00    -0.297 N 
ATOM     16  H   LEU A   3     -13.864  -3.214  10.604  0.00  0.00    +0.150 HD
BRANCH  13  17
ATOM     17  CA  LYS A   2     -12.433  -1.346   9.662  0.00  0.00    +0.149 C 
BRANCH  17  19
ATOM     18  C   GLY A   1     -14.375   0.073   9.343  0.00  0.00    +0.240 C 
ATOM     19  N   LYS A   2     -13.060  -0.041   9.491  0.00  0.00    -0.297 N 
ATOM     20  H   LYS A   2     -12.468   0.814   9.485  0.00  0.00    +0.150 HD
ATOM     21  O   GLY A   1     -15.132  -0.898   9.331  0.00  0.00    -0.274 OA
BRANCH  18  22
ATOM     22  CA  GLY A   1     -14.919   1.479   9.179  0.00  0.00    +0.169 C 
BRANCH  22  23
ATOM     23  N   GLY A   1     -16.145   1.487   8.402  0.00  0.00    -0.236 NA
ATOM     24  H   GLY A   1     -17.058   1.547   8.896  0.00  0.00    +0.142 HD
ENDBRANCH  22  23
ENDBRANCH  18  22
ENDBRANCH  17  19
BRANCH  17  25
ATOM     25  CB  LYS A   2     -10.984  -1.319   9.172  0.00  0.00    +0.029 C 
BRANCH  25  26
ATOM     26  CG  LYS A   2     -10.296  -2.675   9.205  0.00  0.00    +0.000 C 
BRANCH  26  27
ATOM     27  CD  LYS A   2      -9.061  -2.687   8.321  0.00  0.00    -0.024 C 
BRANCH  27  28
ATOM     28  CE  LYS A   2      -8.392  -4.050   8.335  0.00  0.00    -0.086 C 
BRANCH  28  29
ATOM     29  NZ  LYS A   2      -7.334  -4.155   7.294  0.00  0.00    +0.380 N 
ATOM     30  HZ1 LYS A   2      -6.607  -3.431   7.466  0.00  0.00    -0.089 HD
ATOM     31  HZ2 LYS A   2      -6.901  -5.100   7.336  0.00  0.00    -0.089 HD
ATOM     32  HZ3 LYS A   2      -7.757  -4.007   6.355  0.00  0.00    -0.089 HD
ENDBRANCH  28  29
ENDBRANCH  27  28
ENDBRANCH  26  27
ENDBRANCH  25  26
ENDBRANCH  17  25
ENDBRANCH  13  17
ENDBRANCH  12  15
BRANCH  12  33
ATOM     33  CB  LEU A   3     -14.979  -3.866  12.847  0.00  0.00    +0.029 C 
BRANCH  33  34
ATOM     34  CG  LEU A   3     -15.443  -4.458  14.178  0.00  0.00    +0.002 C 
ATOM     35  CD2 LEU A   3     -15.335  -3.440  15.300  0.00  0.00    +0.000 C 
ATOM     36  CD1 LEU A   3     -16.873  -4.961  14.047  0.00  0.00    +0.000 C 
ENDBRANCH  33  34
ENDBRANCH  12  33
ENDBRANCH   8  12
ENDBRANCH   6  10
ENDBRANCH   2   6
ENDBRANCH   1   3
BRANCH   1  37
ATOM     37  C   GLY A   5      -7.449  -8.632  10.736  0.00  0.00    +0.243 C 
ATOM     38  O   GLY A   5      -7.076  -8.933  11.870  0.00  0.00    -0.273 OA
ATOM     39  N   ILE A   6      -7.352  -9.456   9.696  0.00  0.00    -0.297 N 
ATOM     40  H   ILE A   6      -7.623  -9.110   8.754  0.00  0.00    +0.150 HD
BRANCH  39  41
ATOM     41  CA  ILE A   6      -6.877 -10.832   9.833  0.00  0.00    +0.149 C 
BRANCH  41  42
ATOM     42  C   ILE A   6      -5.564 -11.042   9.072  0.00  0.00    +0.241 C 
ATOM     43  N   LEU A   7      -4.603 -11.711   9.706  0.00  0.00    -0.297 N 
ATOM     44  H   LEU A   7      -4.769 -12.041  10.678  0.00  0.00    +0.150 HD
ATOM     45  O   ILE A   6      -5.422 -10.597   7.935  0.00  0.00    -0.273 OA
BRANCH  43  46
ATOM     46  CA  LEU A   7      -3.320 -11.992   9.066  0.00  0.00    +0.149 C 
BRANCH  46  47
ATOM     47  C   LEU A   7      -2.929 -13.462   9.202  0.00  0.00    +0.241 C 
ATOM     48  O   LEU A   7      -2.743 -13.967  10.310  0.00  0.00    -0.273 OA
ATOM     49  N   ALA A   8      -2.804 -14.141   8.066  0.00  0.00    -0.297 N 
ATOM     50  H   ALA A   8      -3.003 -13.659   7.166  0.00  0.00    +0.150 HD
BRANCH  49  51
ATOM     51  CA  ALA A   8      -2.397 -15.541   8.043  0.00  0.00    +0.149 C 
ATOM     52  CB  ALA A   8      -3.335 -16.353   7.166  0.00  0.00    +0.031 C 
BRANCH  51  53
ATOM     53  C   ALA A   8      -0.958 -15.676   7.553  0.00  0.00    +0.241 C 
ATOM     54  N   GLU A   9      -0.122 -16.343   8.342  0.00  0.00    -0.298 N 
ATOM     55  H   GLU A   9      -0.478 -16.758   9.227  0.00  0.00    +0.150 HD
ATOM     56  O   ALA A   8      -0.612 -15.185   6.479  0.00  0.00    -0.273 OA
BRANCH  54  57
ATOM     57  CA  GLU A   9       1.285 -16.505   7.991  0.00  0.00    +0.137 C 
BRANCH  57  58
ATOM     58  C   GLU A   9       1.722 -17.964   8.092  0.00  0.00    +0.227 C 
ATOM     59  O   GLU A   9       1.318 -18.684   9.005  0.00  0.00    -0.286 OA
ENDBRANCH  57  58
BRANCH  57  60
ATOM     60  CB  GLU A   9       2.160 -15.621   8.880  0.00  0.00    +0.039 C 
BRANCH  60  61
ATOM     61  CG  GLU A   9       1.819 -14.140   8.792  0.00  0.00    +0.116 C 
BRANCH  61  62
ATOM     62  CD  GLU A   9       2.784 -13.267   9.567  0.00  0.00    +0.365 C 
ATOM     63  OE2 GLU A   9       2.394 -12.750  10.634  0.00  0.00    -0.246 OA
ATOM     64  OE1 GLU A   9       3.932 -13.096   9.106  0.00  0.00    -0.246 OA
ENDBRANCH  61  62
ENDBRANCH  60  61
ENDBRANCH  57  60
ENDBRANCH  54  57
ENDBRANCH  51  53
ENDBRANCH  49  51
ENDBRANCH  46  47
BRANCH  46  65
ATOM     65  CB  LEU A   7      -2.222 -11.104   9.656  0.00  0.00    +0.029 C 
BRANCH  65  66
ATOM     66  CG  LEU A   7      -0.825 -11.239   9.043  0.00  0.00    +0.002 C 
ATOM     67  CD2 LEU A   7       0.193 -10.438   9.841  0.00  0.00    +0.000 C 
ATOM     68  CD1 LEU A   7      -0.826 -10.804   7.583  0.00  0.00    +0.000 C 
ENDBRANCH  65  66
ENDBRANCH  46  65
ENDBRANCH  43  46
ENDBRANCH  41  42
BRANCH  41  69
ATOM     69  CB  ILE A   6      -7.943 -11.846   9.329  0.00  0.00    +0.027 C 
ATOM     70  CG2 ILE A   6      -7.306 -13.166   8.926  0.00  0.00    +0.002 C 
BRANCH  69  71
ATOM     71  CG1 ILE A   6      -9.001 -12.106  10.405  0.00  0.00    +0.002 C 
ATOM     72  CD1 ILE A   6     -10.033 -11.013  10.545  0.00  0.00    +0.000 C 
ENDBRANCH  69  71
ENDBRANCH  41  69
ENDBRANCH  39  41
ENDBRANCH   1  37
TORSDOF 32
REMARK  Name = ../refined-set-2016/4xtw/4xtw_pocket.pdb
REMARK  235 active torsions:
REMARK  status: ('A' for Active; 'I' for Inactive)
REMARK    1  A    between atoms: _1  and  _3
REMARK    2  A    between atoms: _3  and  _4
REMARK    3  A    between atoms: _3  and  _6
REMARK    4  A    between atoms: _6  and  _7
REMARK    5  A    between atoms: _10  and  _12
REMARK    6  A    between atoms: _12  and  _13
REMARK    7  A    between atoms: _15  and  _17
REMARK    8  A    between atoms: _17  and  _18
REMARK    9  A    between atoms: _17  and  _20
REMARK   10  A    between atoms: _20  and  _21
REMARK   11  A    between atoms: _23  and  _25
REMARK   12  A    between atoms: _25  and  _26
REMARK   13  A    between atoms: _25  and  _28
REMARK   14  A    between atoms: _28  and  _29
REMARK   15  A    between atoms: _32  and  _34
REMARK   16  A    between atoms: _34  and  _35
REMARK   17  A    between atoms: _34  and  _37
REMARK   18  A    between atoms: _37  and  _38
REMARK   19  A    between atoms: _43  and  _45
REMARK   20  A    between atoms: _45  and  _46
REMARK   21  A    between atoms: _49  and  _51
REMARK   22  A    between atoms: _51  and  _52
REMARK   23  A    between atoms: _51  and  _54
REMARK   24  A    between atoms: _54  and  _55
REMARK   25  A    between atoms: _58  and  _60
REMARK   26  A    between atoms: _60  and  _61
REMARK   27  A    between atoms: _60  and  _63
REMARK   28  A    between atoms: _63  and  _64
REMARK   29  A    between atoms: _67  and  _69
REMARK   30  A    between atoms: _69  and  _70
REMARK   31  A    between atoms: _69  and  _72
REMARK   32  A    between atoms: _72  and  _73
REMARK   33  A    between atoms: _76  and  _78
REMARK   34  A    between atoms: _78  and  _79
REMARK   35  A    between atoms: _82  and  _84
REMARK   36  A    between atoms: _84  and  _85
REMARK   37  A    between atoms: _84  and  _87
REMARK   38  A    between atoms: _87  and  _88
REMARK   39  A    between atoms: _88  and  _89
REMARK   40  A    between atoms: _94  and  _96
REMARK   41  A    between atoms: _96  and  _97
REMARK   42  A    between atoms: _96  and  _99
REMARK   43  A    between atoms: _99  and  _100
REMARK   44  A    between atoms: _103  and  _105
REMARK   45  A    between atoms: _105  and  _106
REMARK   46  A    between atoms: _109  and  _111
REMARK   47  A    between atoms: _111  and  _112
REMARK   48  A    between atoms: _114  and  _116
REMARK   49  A    between atoms: _116  and  _117
REMARK   50  A    between atoms: _116  and  _119
REMARK   51  A    between atoms: _119  and  _120
REMARK   52  A    between atoms: _120  and  _121
REMARK   53  A    between atoms: _121  and  _122
REMARK   54  A    between atoms: _131  and  _133
REMARK   55  A    between atoms: _133  and  _134
REMARK   56  A    between atoms: _136  and  _138
REMARK   57  A    between atoms: _138  and  _139
REMARK   58  A    between atoms: _138  and  _141
REMARK   59  A    between atoms: _141  and  _142
REMARK   60  A    between atoms: _142  and  _143
REMARK   61  A    between atoms: _143  and  _144
REMARK   62  A    between atoms: _153  and  _155
REMARK   63  A    between atoms: _155  and  _156
REMARK   64  A    between atoms: _155  and  _158
REMARK   65  A    between atoms: _158  and  _159
REMARK   66  A    between atoms: _164  and  _166
REMARK   67  A    between atoms: _166  and  _167
REMARK   68  A    between atoms: _169  and  _171
REMARK   69  A    between atoms: _171  and  _172
REMARK   70  A    between atoms: _171  and  _174
REMARK   71  A    between atoms: _174  and  _175
REMARK   72  A    between atoms: _175  and  _176
REMARK   73  A    between atoms: _176  and  _177
REMARK   74  A    between atoms: _186  and  _188
REMARK   75  A    between atoms: _188  and  _189
REMARK   76  A    between atoms: _191  and  _193
REMARK   77  A    between atoms: _193  and  _194
REMARK   78  A    between atoms: _193  and  _196
REMARK   79  A    between atoms: _196  and  _197
REMARK   80  A    between atoms: _207  and  _209
REMARK   81  A    between atoms: _209  and  _210
REMARK   82  A    between atoms: _213  and  _215
REMARK   83  A    between atoms: _215  and  _216
REMARK   84  A    between atoms: _219  and  _221
REMARK   85  A    between atoms: _221  and  _222
REMARK   86  A    between atoms: _221  and  _224
REMARK   87  A    between atoms: _224  and  _225
REMARK   88  A    between atoms: _228  and  _230
REMARK   89  A    between atoms: _230  and  _231
REMARK   90  A    between atoms: _230  and  _233
REMARK   91  A    between atoms: _233  and  _234
REMARK   92  A    between atoms: _234  and  _235
REMARK   93  A    between atoms: _240  and  _242
REMARK   94  A    between atoms: _242  and  _243
REMARK   95  A    between atoms: _242  and  _245
REMARK   96  A    between atoms: _245  and  _246
REMARK   97  A    between atoms: _249  and  _251
REMARK   98  A    between atoms: _251  and  _252
REMARK   99  A    between atoms: _251  and  _254
REMARK  100  A    between atoms: _254  and  _255
REMARK  101  A    between atoms: _258  and  _260
REMARK  102  A    between atoms: _260  and  _261
REMARK  103  A    between atoms: _260  and  _263
REMARK  104  A    between atoms: _263  and  _264
REMARK  105  A    between atoms: _267  and  _269
REMARK  106  A    between atoms: _269  and  _270
REMARK  107  A    between atoms: _269  and  _272
REMARK  108  A    between atoms: _272  and  _273
REMARK  109  A    between atoms: _275  and  _277
REMARK  110  A    between atoms: _277  and  _278
REMARK  111  A    between atoms: _277  and  _280
REMARK  112  A    between atoms: _283  and  _285
REMARK  113  A    between atoms: _285  and  _286
REMARK  114  A    between atoms: _285  and  _288
REMARK  115  A    between atoms: _288  and  _289
REMARK  116  A    between atoms: _291  and  _293
REMARK  117  A    between atoms: _293  and  _294
REMARK  118  A    between atoms: _293  and  _296
REMARK  119  A    between atoms: _296  and  _297
REMARK  120  A    between atoms: _297  and  _298
REMARK  121  A    between atoms: _298  and  _299
REMARK  122  A    between atoms: _299  and  _300
REMARK  123  A    between atoms: _305  and  _306
REMARK  124  A    between atoms: _311  and  _313
REMARK  125  A    between atoms: _313  and  _314
REMARK  126  A    between atoms: _313  and  _316
REMARK  127  A    between atoms: _316  and  _317
REMARK  128  A    between atoms: _322  and  _324
REMARK  129  A    between atoms: _324  and  _325
REMARK  130  A    between atoms: _324  and  _327
REMARK  131  A    between atoms: _327  and  _328
REMARK  132  A    between atoms: _331  and  _333
REMARK  133  A    between atoms: _333  and  _334
REMARK  134  A    between atoms: _333  and  _336
REMARK  135  A    between atoms: _339  and  _341
REMARK  136  A    between atoms: _341  and  _342
REMARK  137  A    between atoms: _344  and  _346
REMARK  138  A    between atoms: _346  and  _347
REMARK  139  A    between atoms: _346  and  _349
REMARK  140  A    between atoms: _349  and  _350
REMARK  141  A    between atoms: _350  and  _351
REMARK  142  A    between atoms: _351  and  _352
REMARK  143  A    between atoms: _352  and  _353
REMARK  144  A    between atoms: _357  and  _359
REMARK  145  A    between atoms: _359  and  _360
REMARK  146  A    between atoms: _359  and  _362
REMARK  147  A    between atoms: _362  and  _363
REMARK  148  A    between atoms: _366  and  _368
REMARK  149  A    between atoms: _368  and  _369
REMARK  150  A    between atoms: _372  and  _374
REMARK  151  A    between atoms: _374  and  _375
REMARK  152  A    between atoms: _377  and  _379
REMARK  153  A    between atoms: _379  and  _380
REMARK  154  A    between atoms: _379  and  _382
REMARK  155  A    between atoms: _382  and  _383
REMARK  156  A    between atoms: _386  and  _388
REMARK  157  A    between atoms: _388  and  _389
REMARK  158  A    between atoms: _388  and  _391
REMARK  159  A    between atoms: _391  and  _392
REMARK  160  A    between atoms: _395  and  _397
REMARK  161  A    between atoms: _397  and  _398
REMARK  162  A    between atoms: _401  and  _403
REMARK  163  A    between atoms: _403  and  _404
REMARK  164  A    between atoms: _403  and  _406
REMARK  165  A    between atoms: _406  and  _407
REMARK  166  A    between atoms: _407  and  _408
REMARK  167  A    between atoms: _411  and  _413
REMARK  168  A    between atoms: _413  and  _414
REMARK  169  A    between atoms: _413  and  _416
REMARK  170  A    between atoms: _419  and  _421
REMARK  171  A    between atoms: _421  and  _422
REMARK  172  A    between atoms: _421  and  _424
REMARK  173  A    between atoms: _424  and  _425
REMARK  174  A    between atoms: _428  and  _430
REMARK  175  A    between atoms: _430  and  _431
REMARK  176  A    between atoms: _433  and  _435
REMARK  177  A    between atoms: _435  and  _436
REMARK  178  A    between atoms: _435  and  _438
REMARK  179  A    between atoms: _441  and  _443
REMARK  180  A    between atoms: _443  and  _444
REMARK  181  A    between atoms: _446  and  _448
REMARK  182  A    between atoms: _448  and  _449
REMARK  183  A    between atoms: _448  and  _451
REMARK  184  A    between atoms: _451  and  _452
REMARK  185  A    between atoms: _455  and  _457
REMARK  186  A    between atoms: _457  and  _458
REMARK  187  A    between atoms: _457  and  _460
REMARK  188  A    between atoms: _460  and  _461
REMARK  189  A    between atoms: _466  and  _468
REMARK  190  A    between atoms: _468  and  _469
REMARK  191  A    between atoms: _468  and  _471
REMARK  192  A    between atoms: _474  and  _476
REMARK  193  A    between atoms: _476  and  _477
REMARK  194  A    between atoms: _476  and  _479
REMARK  195  A    between atoms: _479  and  _480
REMARK  196  A    between atoms: _480  and  _481
REMARK  197  A    between atoms: _486  and  _488
REMARK  198  A    between atoms: _488  and  _489
REMARK  199  A    between atoms: _493  and  _494
REMARK  200  A    between atoms: _499  and  _501
REMARK  201  A    between atoms: _501  and  _502
REMARK  202  A    between atoms: _501  and  _504
REMARK  203  A    between atoms: _504  and  _505
REMARK  204  A    between atoms: _505  and  _506
REMARK  205  A    between atoms: _509  and  _511
REMARK  206  A    between atoms: _511  and  _512
REMARK  207  A    between atoms: _511  and  _514
REMARK  208  A    between atoms: _517  and  _519
REMARK  209  A    between atoms: _519  and  _520
REMARK  210  A    between atoms: _519  and  _522
REMARK  211  A    between atoms: _522  and  _523
REMARK  212  A    between atoms: _527  and  _528
REMARK  213  A    between atoms: _533  and  _535
REMARK  214  A    between atoms: _535  and  _536
REMARK  215  A    between atoms: _535  and  _538
REMARK  216  A    between atoms: _538  and  _539
REMARK  217  A    between atoms: _542  and  _544
REMARK  218  A    between atoms: _544  and  _545
REMARK  219  A    between atoms: _548  and  _550
REMARK  220  A    between atoms: _550  and  _551
REMARK  221  A    between atoms: _550  and  _553
REMARK  222  A    between atoms: _553  and  _554
REMARK  223  A    between atoms: _557  and  _559
REMARK  224  A    between atoms: _559  and  _560
REMARK  225  A    between atoms: _559  and  _562
REMARK  226  A    between atoms: _562  and  _563
REMARK  227  A    between atoms: _565  and  _567
REMARK  228  A    between atoms: _567  and  _568
REMARK  229  A    between atoms: _570  and  _572
REMARK  230  A    between atoms: _572  and  _573
REMARK  231  A    between atoms: _572  and  _575
REMARK  232  A    between atoms: _575  and  _576
REMARK  233  A    between atoms: _579  and  _581
REMARK  234  A    between atoms: _581  and  _582
REMARK  235  A    between atoms: _581  and  _584
REMARK                            x       y       z     vdW  Elec       q    Type
REMARK                         _______ _______ _______ _____ _____    ______ ____
ROOT
ATOM      1  C   VAL A   4      -6.661 -10.221  15.504  0.00  0.00    +0.241 C 
ATOM      2  O   VAL A   4      -6.283 -10.321  16.671  0.00  0.00    -0.273 OA
ATOM      3  N   GLY A   5      -6.923  -9.054  14.926  0.00  0.00    -0.295 N 
ATOM      4  H   GLY A   5      -7.126  -9.030  13.906  0.00  0.00    +0.150 HD
ENDROOT
BRANCH   3   5
ATOM      5  CA  GLY A   5      -6.934  -7.812  15.676  0.00  0.00    +0.176 C 
BRANCH   5   6
ATOM      6  C   GLY A   5      -8.318  -7.197  15.615  0.00  0.00    +0.243 C 
ATOM      7  N   LEU A   6      -9.051  -7.269  16.722  0.00  0.00    -0.297 N 
ATOM      8  H   LEU A   6      -8.632  -7.678  17.582  0.00  0.00    +0.150 HD
ATOM      9  O   GLY A   5      -8.721  -6.674  14.580  0.00  0.00    -0.273 OA
BRANCH   7  10
ATOM     10  CA  LEU A   6     -10.430  -6.789  16.762  0.00  0.00    +0.149 C 
BRANCH  10  11
ATOM     11  C   LEU A   6     -10.579  -5.559  17.653  0.00  0.00    +0.241 C 
ATOM     12  O   LEU A   6     -10.363  -5.630  18.862  0.00  0.00    -0.273 OA
ATOM     13  N   ASN A   7     -10.953  -4.433  17.051  0.00  0.00    -0.297 N 
ATOM     14  H   ASN A   7     -11.120  -4.436  16.025  0.00  0.00    +0.150 HD
BRANCH  13  15
ATOM     15  CA  ASN A   7     -11.134  -3.192  17.800  0.00  0.00    +0.158 C 
BRANCH  15  16
ATOM     16  C   ASN A   7     -12.385  -3.233  18.667  0.00  0.00    +0.241 C 
ATOM     17  N   VAL A   8     -12.188  -3.277  19.980  0.00  0.00    -0.298 N 
ATOM     18  H   VAL A   8     -11.215  -3.246  20.347  0.00  0.00    +0.150 HD
ATOM     19  O   ASN A   7     -13.505  -3.217  18.158  0.00  0.00    -0.273 OA
BRANCH  17  20
ATOM     20  CA  VAL A   8     -13.299  -3.367  20.920  0.00  0.00    +0.137 C 
BRANCH  20  21
ATOM     21  CB  VAL A   8     -12.951  -4.292  22.099  0.00  0.00    +0.026 C 
ATOM     22  CG2 VAL A   8     -14.073  -4.304  23.116  0.00  0.00    +0.002 C 
ATOM     23  CG1 VAL A   8     -12.668  -5.701  21.596  0.00  0.00    +0.002 C 
ENDBRANCH  20  21
BRANCH  20  24
ATOM     24  C   VAL A   8     -13.693  -1.987  21.446  0.00  0.00    +0.227 C 
ATOM     25  O   VAL A   8     -14.826  -1.543  21.259  0.00  0.00    -0.286 OA
ENDBRANCH  20  24
ENDBRANCH  17  20
ENDBRANCH  15  16
BRANCH  15  26
ATOM     26  CB  ASN A   7     -11.206  -1.993  16.853  0.00  0.00    +0.114 C 
BRANCH  26  27
ATOM     27  CG  ASN A   7      -9.938  -1.806  16.044  0.00  0.00    +0.222 C 
ATOM     28  ND2 ASN A   7      -8.794  -1.862  16.714  0.00  0.00    -0.329 N 
ATOM     29 HD21 ASN A   7      -8.800  -2.031  17.740  0.00  0.00    +0.145 HD
ATOM     30 HD22 ASN A   7      -7.891  -1.737  16.213  0.00  0.00    +0.145 HD
ATOM     31  OD1 ASN A   7      -9.987  -1.609  14.829  0.00  0.00    -0.275 OA
ENDBRANCH  26  27
ENDBRANCH  15  26
ENDBRANCH  13  15
ENDBRANCH  10  11
BRANCH  10  32
ATOM     32  CB  LEU A   6     -11.361  -7.904  17.245  0.00  0.00    +0.029 C 
BRANCH  32  33
ATOM     33  CG  LEU A   6     -12.812  -7.539  17.570  0.00  0.00    +0.002 C 
ATOM     34  CD2 LEU A   6     -13.540  -8.737  18.171  0.00  0.00    +0.000 C 
ATOM     35  CD1 LEU A   6     -13.537  -7.029  16.333  0.00  0.00    +0.000 C 
ENDBRANCH  32  33
ENDBRANCH  10  32
ENDBRANCH   7  10
ENDBRANCH   5   6
ENDBRANCH   3   5
BRANCH   1  36
ATOM     36  CA  VAL A   4      -6.846 -11.459  14.632  0.00  0.00    +0.149 C 
BRANCH  36  38
ATOM     37  C   GLY A   3      -5.094 -12.725  13.507  0.00  0.00    +0.243 C 
ATOM     38  N   VAL A   4      -5.654 -12.299  14.635  0.00  0.00    -0.297 N 
ATOM     39  H   VAL A   4      -5.230 -12.572  15.545  0.00  0.00    +0.150 HD
ATOM     40  O   GLY A   3      -5.541 -12.457  12.392  0.00  0.00    -0.273 OA
BRANCH  37  41
ATOM     41  CA  GLY A   3      -3.853 -13.580  13.659  0.00  0.00    +0.176 C 
BRANCH  41  44
ATOM     42  C   LEU A   2      -3.951 -15.960  13.197  0.00  0.00    +0.241 C 
ATOM     43  O   LEU A   2      -4.049 -16.241  14.390  0.00  0.00    -0.273 OA
ATOM     44  N   GLY A   3      -3.845 -14.712  12.753  0.00  0.00    -0.295 N 
ATOM     45  H   GLY A   3      -3.754 -14.543  11.731  0.00  0.00    +0.150 HD
BRANCH  42  46
ATOM     46  CA  LEU A   2      -3.948 -17.054  12.142  0.00  0.00    +0.149 C 
BRANCH  46  48
ATOM     47  C   VAL A   1      -1.671 -17.863  11.826  0.00  0.00    +0.238 C 
ATOM     48  N   LEU A   2      -2.869 -18.004  12.383  0.00  0.00    -0.297 N 
ATOM     49  H   LEU A   2      -3.042 -18.816  13.009  0.00  0.00    +0.150 HD
ATOM     50  O   VAL A   1      -1.395 -16.949  11.048  0.00  0.00    -0.274 OA
BRANCH  47  51
ATOM     51  CA  VAL A   1      -0.632 -18.916  12.195  0.00  0.00    +0.145 C 
BRANCH  51  52
ATOM     52  CB  VAL A   1       0.604 -18.226  12.799  0.00  0.00    +0.025 C 
ATOM     53  CG2 VAL A   1       0.183 -17.236  13.874  0.00  0.00    +0.002 C 
ATOM     54  CG1 VAL A   1       1.563 -19.261  13.366  0.00  0.00    +0.002 C 
ENDBRANCH  51  52
BRANCH  51  55
ATOM     55  N   VAL A   1      -0.284 -19.725  11.035  0.00  0.00    -0.238 NA
ATOM     56  H   VAL A   1       0.441 -19.383  10.372  0.00  0.00    +0.142 HD
ENDBRANCH  51  55
ENDBRANCH  47  51
ENDBRANCH  46  48
BRANCH  46  57
ATOM     57  CB  LEU A   2      -5.302 -17.763  12.128  0.00  0.00    +0.029 C 
BRANCH  57  58
ATOM     58  CG  LEU A   2      -5.626 -18.609  10.898  0.00  0.00    +0.002 C 
ATOM     59  CD2 LEU A   2      -6.941 -19.345  11.098  0.00  0.00    +0.000 C 
ATOM     60  CD1 LEU A   2      -5.679 -17.733   9.657  0.00  0.00    +0.000 C 
ENDBRANCH  57  58
ENDBRANCH  46  57
ENDBRANCH  42  46
ENDBRANCH  41  44
ENDBRANCH  37  41
ENDBRANCH  36  38
BRANCH  36  61
ATOM     61  CB  VAL A   4      -8.086 -12.234  15.126  0.00  0.00    +0.027 C 
ATOM     62  CG2 VAL A   4      -9.269 -11.291  15.301  0.00  0.00    +0.002 C 
ATOM     63  CG1 VAL A   4      -8.431 -13.361  14.167  0.00  0.00    +0.002 C 
ENDBRANCH  36  61
ENDBRANCH   1  36
TORSDOF 25
REMARK  Name = ../refined-set-2016/4xtw/4xtw_pocket.pdb
REMARK  235 active torsions:
REMARK  status: ('A' for Active; 'I' for Inactive)
REMARK    1  A    between atoms: _1  and  _3
REMARK    2  A    between atoms: _3  and  _4
REMARK    3  A    between atoms: _3  and  _6
REMARK    4  A    between atoms: _6  and  _7
REMARK    5  A    between atoms: _10  and  _12
REMARK    6  A    between atoms: _12  and  _13
REMARK    7  A    between atoms: _15  and  _17
REMARK    8  A    between atoms: _17  and  _18
REMARK    9  A    between atoms: _17  and  _20
REMARK   10  A    between atoms: _20  and  _21
REMARK   11  A    between atoms: _23  and  _25
REMARK   12  A    between atoms: _25  and  _26
REMARK   13  A    between atoms: _25  and  _28
REMARK   14  A    between atoms: _28  and  _29
REMARK   15  A    between atoms: _32  and  _34
REMARK   16  A    between atoms: _34  and  _35
REMARK   17  A    between atoms: _34  and  _37
REMARK   18  A    between atoms: _37  and  _38
REMARK   19  A    between atoms: _43  and  _45
REMARK   20  A    between atoms: _45  and  _46
REMARK   21  A    between atoms: _49  and  _51
REMARK   22  A    between atoms: _51  and  _52
REMARK   23  A    between atoms: _51  and  _54
REMARK   24  A    between atoms: _54  and  _55
REMARK   25  A    between atoms: _58  and  _60
REMARK   26  A    between atoms: _60  and  _61
REMARK   27  A    between atoms: _60  and  _63
REMARK   28  A    between atoms: _63  and  _64
REMARK   29  A    between atoms: _67  and  _69
REMARK   30  A    between atoms: _69  and  _70
REMARK   31  A    between atoms: _69  and  _72
REMARK   32  A    between atoms: _72  and  _73
REMARK   33  A    between atoms: _76  and  _78
REMARK   34  A    between atoms: _78  and  _79
REMARK   35  A    between atoms: _82  and  _84
REMARK   36  A    between atoms: _84  and  _85
REMARK   37  A    between atoms: _84  and  _87
REMARK   38  A    between atoms: _87  and  _88
REMARK   39  A    between atoms: _88  and  _89
REMARK   40  A    between atoms: _94  and  _96
REMARK   41  A    between atoms: _96  and  _97
REMARK   42  A    between atoms: _96  and  _99
REMARK   43  A    between atoms: _99  and  _100
REMARK   44  A    between atoms: _103  and  _105
REMARK   45  A    between atoms: _105  and  _106
REMARK   46  A    between atoms: _109  and  _111
REMARK   47  A    between atoms: _111  and  _112
REMARK   48  A    between atoms: _114  and  _116
REMARK   49  A    between atoms: _116  and  _117
REMARK   50  A    between atoms: _116  and  _119
REMARK   51  A    between atoms: _119  and  _120
REMARK   52  A    between atoms: _120  and  _121
REMARK   53  A    between atoms: _121  and  _122
REMARK   54  A    between atoms: _131  and  _133
REMARK   55  A    between atoms: _133  and  _134
REMARK   56  A    between atoms: _136  and  _138
REMARK   57  A    between atoms: _138  and  _139
REMARK   58  A    between atoms: _138  and  _141
REMARK   59  A    between atoms: _141  and  _142
REMARK   60  A    between atoms: _142  and  _143
REMARK   61  A    between atoms: _143  and  _144
REMARK   62  A    between atoms: _153  and  _155
REMARK   63  A    between atoms: _155  and  _156
REMARK   64  A    between atoms: _155  and  _158
REMARK   65  A    between atoms: _158  and  _159
REMARK   66  A    between atoms: _164  and  _166
REMARK   67  A    between atoms: _166  and  _167
REMARK   68  A    between atoms: _169  and  _171
REMARK   69  A    between atoms: _171  and  _172
REMARK   70  A    between atoms: _171  and  _174
REMARK   71  A    between atoms: _174  and  _175
REMARK   72  A    between atoms: _175  and  _176
REMARK   73  A    between atoms: _176  and  _177
REMARK   74  A    between atoms: _186  and  _188
REMARK   75  A    between atoms: _188  and  _189
REMARK   76  A    between atoms: _191  and  _193
REMARK   77  A    between atoms: _193  and  _194
REMARK   78  A    between atoms: _193  and  _196
REMARK   79  A    between atoms: _196  and  _197
REMARK   80  A    between atoms: _207  and  _209
REMARK   81  A    between atoms: _209  and  _210
REMARK   82  A    between atoms: _213  and  _215
REMARK   83  A    between atoms: _215  and  _216
REMARK   84  A    between atoms: _219  and  _221
REMARK   85  A    between atoms: _221  and  _222
REMARK   86  A    between atoms: _221  and  _224
REMARK   87  A    between atoms: _224  and  _225
REMARK   88  A    between atoms: _228  and  _230
REMARK   89  A    between atoms: _230  and  _231
REMARK   90  A    between atoms: _230  and  _233
REMARK   91  A    between atoms: _233  and  _234
REMARK   92  A    between atoms: _234  and  _235
REMARK   93  A    between atoms: _240  and  _242
REMARK   94  A    between atoms: _242  and  _243
REMARK   95  A    between atoms: _242  and  _245
REMARK   96  A    between atoms: _245  and  _246
REMARK   97  A    between atoms: _249  and  _251
REMARK   98  A    between atoms: _251  and  _252
REMARK   99  A    between atoms: _251  and  _254
REMARK  100  A    between atoms: _254  and  _255
REMARK  101  A    between atoms: _258  and  _260
REMARK  102  A    between atoms: _260  and  _261
REMARK  103  A    between atoms: _260  and  _263
REMARK  104  A    between atoms: _263  and  _264
REMARK  105  A    between atoms: _267  and  _269
REMARK  106  A    between atoms: _269  and  _270
REMARK  107  A    between atoms: _269  and  _272
REMARK  108  A    between atoms: _272  and  _273
REMARK  109  A    between atoms: _275  and  _277
REMARK  110  A    between atoms: _277  and  _278
REMARK  111  A    between atoms: _277  and  _280
REMARK  112  A    between atoms: _283  and  _285
REMARK  113  A    between atoms: _285  and  _286
REMARK  114  A    between atoms: _285  and  _288
REMARK  115  A    between atoms: _288  and  _289
REMARK  116  A    between atoms: _291  and  _293
REMARK  117  A    between atoms: _293  and  _294
REMARK  118  A    between atoms: _293  and  _296
REMARK  119  A    between atoms: _296  and  _297
REMARK  120  A    between atoms: _297  and  _298
REMARK  121  A    between atoms: _298  and  _299
REMARK  122  A    between atoms: _299  and  _300
REMARK  123  A    between atoms: _305  and  _306
REMARK  124  A    between atoms: _311  and  _313
REMARK  125  A    between atoms: _313  and  _314
REMARK  126  A    between atoms: _313  and  _316
REMARK  127  A    between atoms: _316  and  _317
REMARK  128  A    between atoms: _322  and  _324
REMARK  129  A    between atoms: _324  and  _325
REMARK  130  A    between atoms: _324  and  _327
REMARK  131  A    between atoms: _327  and  _328
REMARK  132  A    between atoms: _331  and  _333
REMARK  133  A    between atoms: _333  and  _334
REMARK  134  A    between atoms: _333  and  _336
REMARK  135  A    between atoms: _339  and  _341
REMARK  136  A    between atoms: _341  and  _342
REMARK  137  A    between atoms: _344  and  _346
REMARK  138  A    between atoms: _346  and  _347
REMARK  139  A    between atoms: _346  and  _349
REMARK  140  A    between atoms: _349  and  _350
REMARK  141  A    between atoms: _350  and  _351
REMARK  142  A    between atoms: _351  and  _352
REMARK  143  A    between atoms: _352  and  _353
REMARK  144  A    between atoms: _357  and  _359
REMARK  145  A    between atoms: _359  and  _360
REMARK  146  A    between atoms: _359  and  _362
REMARK  147  A    between atoms: _362  and  _363
REMARK  148  A    between atoms: _366  and  _368
REMARK  149  A    between atoms: _368  and  _369
REMARK  150  A    between atoms: _372  and  _374
REMARK  151  A    between atoms: _374  and  _375
REMARK  152  A    between atoms: _377  and  _379
REMARK  153  A    between atoms: _379  and  _380
REMARK  154  A    between atoms: _379  and  _382
REMARK  155  A    between atoms: _382  and  _383
REMARK  156  A    between atoms: _386  and  _388
REMARK  157  A    between atoms: _388  and  _389
REMARK  158  A    between atoms: _388  and  _391
REMARK  159  A    between atoms: _391  and  _392
REMARK  160  A    between atoms: _395  and  _397
REMARK  161  A    between atoms: _397  and  _398
REMARK  162  A    between atoms: _401  and  _403
REMARK  163  A    between atoms: _403  and  _404
REMARK  164  A    between atoms: _403  and  _406
REMARK  165  A    between atoms: _406  and  _407
REMARK  166  A    between atoms: _407  and  _408
REMARK  167  A    between atoms: _411  and  _413
REMARK  168  A    between atoms: _413  and  _414
REMARK  169  A    between atoms: _413  and  _416
REMARK  170  A    between atoms: _419  and  _421
REMARK  171  A    between atoms: _421  and  _422
REMARK  172  A    between atoms: _421  and  _424
REMARK  173  A    between atoms: _424  and  _425
REMARK  174  A    between atoms: _428  and  _430
REMARK  175  A    between atoms: _430  and  _431
REMARK  176  A    between atoms: _433  and  _435
REMARK  177  A    between atoms: _435  and  _436
REMARK  178  A    between atoms: _435  and  _438
REMARK  179  A    between atoms: _441  and  _443
REMARK  180  A    between atoms: _443  and  _444
REMARK  181  A    between atoms: _446  and  _448
REMARK  182  A    between atoms: _448  and  _449
REMARK  183  A    between atoms: _448  and  _451
REMARK  184  A    between atoms: _451  and  _452
REMARK  185  A    between atoms: _455  and  _457
REMARK  186  A    between atoms: _457  and  _458
REMARK  187  A    between atoms: _457  and  _460
REMARK  188  A    between atoms: _460  and  _461
REMARK  189  A    between atoms: _466  and  _468
REMARK  190  A    between atoms: _468  and  _469
REMARK  191  A    between atoms: _468  and  _471
REMARK  192  A    between atoms: _474  and  _476
REMARK  193  A    between atoms: _476  and  _477
REMARK  194  A    between atoms: _476  and  _479
REMARK  195  A    between atoms: _479  and  _480
REMARK  196  A    between atoms: _480  and  _481
REMARK  197  A    between atoms: _486  and  _488
REMARK  198  A    between atoms: _488  and  _489
REMARK  199  A    between atoms: _493  and  _494
REMARK  200  A    between atoms: _499  and  _501
REMARK  201  A    between atoms: _501  and  _502
REMARK  202  A    between atoms: _501  and  _504
REMARK  203  A    between atoms: _504  and  _505
REMARK  204  A    between atoms: _505  and  _506
REMARK  205  A    between atoms: _509  and  _511
REMARK  206  A    between atoms: _511  and  _512
REMARK  207  A    between atoms: _511  and  _514
REMARK  208  A    between atoms: _517  and  _519
REMARK  209  A    between atoms: _519  and  _520
REMARK  210  A    between atoms: _519  and  _522
REMARK  211  A    between atoms: _522  and  _523
REMARK  212  A    between atoms: _527  and  _528
REMARK  213  A    between atoms: _533  and  _535
REMARK  214  A    between atoms: _535  and  _536
REMARK  215  A    between atoms: _535  and  _538
REMARK  216  A    between atoms: _538  and  _539
REMARK  217  A    between atoms: _542  and  _544
REMARK  218  A    between atoms: _544  and  _545
REMARK  219  A    between atoms: _548  and  _550
REMARK  220  A    between atoms: _550  and  _551
REMARK  221  A    between atoms: _550  and  _553
REMARK  222  A    between atoms: _553  and  _554
REMARK  223  A    between atoms: _557  and  _559
REMARK  224  A    between atoms: _559  and  _560
REMARK  225  A    between atoms: _559  and  _562
REMARK  226  A    between atoms: _562  and  _563
REMARK  227  A    between atoms: _565  and  _567
REMARK  228  A    between atoms: _567  and  _568
REMARK  229  A    between atoms: _570  and  _572
REMARK  230  A    between atoms: _572  and  _573
REMARK  231  A    between atoms: _572  and  _575
REMARK  232  A    between atoms: _575  and  _576
REMARK  233  A    between atoms: _579  and  _581
REMARK  234  A    between atoms: _581  and  _582
REMARK  235  A    between atoms: _581  and  _584
REMARK                            x       y       z     vdW  Elec       q    Type
REMARK                         _______ _______ _______ _____ _____    ______ ____
ROOT
ATOM      1  C   GLN A   1     -10.625   2.434  19.599  0.00  0.00    +0.238 C 
ATOM      2  N   ALA A   2     -10.205   3.625  20.008  0.00  0.00    -0.297 N 
ATOM      3  H   ALA A   2      -9.590   3.690  20.844  0.00  0.00    +0.150 HD
ATOM      4  O   GLN A   1     -11.397   2.289  18.652  0.00  0.00    -0.274 OA
ENDROOT
BRANCH   2   5
ATOM      5  CA  ALA A   2     -10.591   4.844  19.306  0.00  0.00    +0.149 C 
ATOM      6  CB  ALA A   2     -10.360   6.063  20.185  0.00  0.00    +0.031 C 
BRANCH   5   7
ATOM      7  C   ALA A   2      -9.816   4.971  17.998  0.00  0.00    +0.244 C 
ATOM      8  O   ALA A   2      -8.613   4.716  17.961  0.00  0.00    -0.273 OA
ATOM      9  N   PRO A   3     -10.510   5.358  16.916  0.00  0.00    -0.273 N 
ATOM     10  CD  PRO A   3     -11.968   5.561  16.860  0.00  0.00    +0.094 C 
ATOM     11  CG  PRO A   3     -12.257   5.549  15.386  0.00  0.00    +0.024 C 
ATOM     12  CB  PRO A   3     -11.026   6.080  14.741  0.00  0.00    +0.030 C 
ATOM     13  CA  PRO A   3      -9.881   5.542  15.603  0.00  0.00    +0.140 C 
BRANCH  13  14
ATOM     14  C   PRO A   3      -8.721   6.533  15.646  0.00  0.00    +0.227 C 
ATOM     15  O   PRO A   3      -7.756   6.384  14.896  0.00  0.00    -0.286 OA
ENDBRANCH  13  14
ENDBRANCH   5   7
ENDBRANCH   2   5
BRANCH   1  16
ATOM     16  CA  GLN A   1     -10.103   1.224  20.370  0.00  0.00    +0.145 C 
BRANCH  16  17
ATOM     17  N   GLN A   1     -11.188   0.479  20.994  0.00  0.00    -0.238 NA
ATOM     18  H   GLN A   1     -11.405  -0.477  20.646  0.00  0.00    +0.142 HD
ENDBRANCH  16  17
BRANCH  16  19
ATOM     19  CB  GLN A   1      -9.309   0.312  19.433  0.00  0.00    +0.036 C 
BRANCH  19  20
ATOM     20  CG  GLN A   1      -8.041   0.934  18.882  0.00  0.00    +0.087 C 
BRANCH  20  21
ATOM     21  CD  GLN A   1      -6.882   0.842  19.853  0.00  0.00    +0.219 C 
ATOM     22  NE2 GLN A   1      -6.691   1.886  20.652  0.00  0.00    -0.329 N 
ATOM     23 HE21 GLN A   1      -5.911   1.879  21.340  0.00  0.00    +0.145 HD
ATOM     24 HE22 GLN A   1      -7.321   2.711  20.590  0.00  0.00    +0.145 HD
ATOM     25  OE1 GLN A   1      -6.166  -0.159  19.885  0.00  0.00    -0.275 OA
ENDBRANCH  20  21
ENDBRANCH  19  20
ENDBRANCH  16  19
ENDBRANCH   1  16
TORSDOF 8
REMARK  Name = ../refined-set-2016/4xtw/4xtw_pocket.pdb
REMARK  235 active torsions:
REMARK  status: ('A' for Active; 'I' for Inactive)
REMARK    1  A    between atoms: _1  and  _3
REMARK    2  A    between atoms: _3  and  _4
REMARK    3  A    between atoms: _3  and  _6
REMARK    4  A    between atoms: _6  and  _7
REMARK    5  A    between atoms: _10  and  _12
REMARK    6  A    between atoms: _12  and  _13
REMARK    7  A    between atoms: _15  and  _17
REMARK    8  A    between atoms: _17  and  _18
REMARK    9  A    between atoms: _17  and  _20
REMARK   10  A    between atoms: _20  and  _21
REMARK   11  A    between atoms: _23  and  _25
REMARK   12  A    between atoms: _25  and  _26
REMARK   13  A    between atoms: _25  and  _28
REMARK   14  A    between atoms: _28  and  _29
REMARK   15  A    between atoms: _32  and  _34
REMARK   16  A    between atoms: _34  and  _35
REMARK   17  A    between atoms: _34  and  _37
REMARK   18  A    between atoms: _37  and  _38
REMARK   19  A    between atoms: _43  and  _45
REMARK   20  A    between atoms: _45  and  _46
REMARK   21  A    between atoms: _49  and  _51
REMARK   22  A    between atoms: _51  and  _52
REMARK   23  A    between atoms: _51  and  _54
REMARK   24  A    between atoms: _54  and  _55
REMARK   25  A    between atoms: _58  and  _60
REMARK   26  A    between atoms: _60  and  _61
REMARK   27  A    between atoms: _60  and  _63
REMARK   28  A    between atoms: _63  and  _64
REMARK   29  A    between atoms: _67  and  _69
REMARK   30  A    between atoms: _69  and  _70
REMARK   31  A    between atoms: _69  and  _72
REMARK   32  A    between atoms: _72  and  _73
REMARK   33  A    between atoms: _76  and  _78
REMARK   34  A    between atoms: _78  and  _79
REMARK   35  A    between atoms: _82  and  _84
REMARK   36  A    between atoms: _84  and  _85
REMARK   37  A    between atoms: _84  and  _87
REMARK   38  A    between atoms: _87  and  _88
REMARK   39  A    between atoms: _88  and  _89
REMARK   40  A    between atoms: _94  and  _96
REMARK   41  A    between atoms: _96  and  _97
REMARK   42  A    between atoms: _96  and  _99
REMARK   43  A    between atoms: _99  and  _100
REMARK   44  A    between atoms: _103  and  _105
REMARK   45  A    between atoms: _105  and  _106
REMARK   46  A    between atoms: _109  and  _111
REMARK   47  A    between atoms: _111  and  _112
REMARK   48  A    between atoms: _114  and  _116
REMARK   49  A    between atoms: _116  and  _117
REMARK   50  A    between atoms: _116  and  _119
REMARK   51  A    between atoms: _119  and  _120
REMARK   52  A    between atoms: _120  and  _121
REMARK   53  A    between atoms: _121  and  _122
REMARK   54  A    between atoms: _131  and  _133
REMARK   55  A    between atoms: _133  and  _134
REMARK   56  A    between atoms: _136  and  _138
REMARK   57  A    between atoms: _138  and  _139
REMARK   58  A    between atoms: _138  and  _141
REMARK   59  A    between atoms: _141  and  _142
REMARK   60  A    between atoms: _142  and  _143
REMARK   61  A    between atoms: _143  and  _144
REMARK   62  A    between atoms: _153  and  _155
REMARK   63  A    between atoms: _155  and  _156
REMARK   64  A    between atoms: _155  and  _158
REMARK   65  A    between atoms: _158  and  _159
REMARK   66  A    between atoms: _164  and  _166
REMARK   67  A    between atoms: _166  and  _167
REMARK   68  A    between atoms: _169  and  _171
REMARK   69  A    between atoms: _171  and  _172
REMARK   70  A    between atoms: _171  and  _174
REMARK   71  A    between atoms: _174  and  _175
REMARK   72  A    between atoms: _175  and  _176
REMARK   73  A    between atoms: _176  and  _177
REMARK   74  A    between atoms: _186  and  _188
REMARK   75  A    between atoms: _188  and  _189
REMARK   76  A    between atoms: _191  and  _193
REMARK   77  A    between atoms: _193  and  _194
REMARK   78  A    between atoms: _193  and  _196
REMARK   79  A    between atoms: _196  and  _197
REMARK   80  A    between atoms: _207  and  _209
REMARK   81  A    between atoms: _209  and  _210
REMARK   82  A    between atoms: _213  and  _215
REMARK   83  A    between atoms: _215  and  _216
REMARK   84  A    between atoms: _219  and  _221
REMARK   85  A    between atoms: _221  and  _222
REMARK   86  A    between atoms: _221  and  _224
REMARK   87  A    between atoms: _224  and  _225
REMARK   88  A    between atoms: _228  and  _230
REMARK   89  A    between atoms: _230  and  _231
REMARK   90  A    between atoms: _230  and  _233
REMARK   91  A    between atoms: _233  and  _234
REMARK   92  A    between atoms: _234  and  _235
REMARK   93  A    between atoms: _240  and  _242
REMARK   94  A    between atoms: _242  and  _243
REMARK   95  A    between atoms: _242  and  _245
REMARK   96  A    between atoms: _245  and  _246
REMARK   97  A    between atoms: _249  and  _251
REMARK   98  A    between atoms: _251  and  _252
REMARK   99  A    between atoms: _251  and  _254
REMARK  100  A    between atoms: _254  and  _255
REMARK  101  A    between atoms: _258  and  _260
REMARK  102  A    between atoms: _260  and  _261
REMARK  103  A    between atoms: _260  and  _263
REMARK  104  A    between atoms: _263  and  _264
REMARK  105  A    between atoms: _267  and  _269
REMARK  106  A    between atoms: _269  and  _270
REMARK  107  A    between atoms: _269  and  _272
REMARK  108  A    between atoms: _272  and  _273
REMARK  109  A    between atoms: _275  and  _277
REMARK  110  A    between atoms: _277  and  _278
REMARK  111  A    between atoms: _277  and  _280
REMARK  112  A    between atoms: _283  and  _285
REMARK  113  A    between atoms: _285  and  _286
REMARK  114  A    between atoms: _285  and  _288
REMARK  115  A    between atoms: _288  and  _289
REMARK  116  A    between atoms: _291  and  _293
REMARK  117  A    between atoms: _293  and  _294
REMARK  118  A    between atoms: _293  and  _296
REMARK  119  A    between atoms: _296  and  _297
REMARK  120  A    between atoms: _297  and  _298
REMARK  121  A    between atoms: _298  and  _299
REMARK  122  A    between atoms: _299  and  _300
REMARK  123  A    between atoms: _305  and  _306
REMARK  124  A    between atoms: _311  and  _313
REMARK  125  A    between atoms: _313  and  _314
REMARK  126  A    between atoms: _313  and  _316
REMARK  127  A    between atoms: _316  and  _317
REMARK  128  A    between atoms: _322  and  _324
REMARK  129  A    between atoms: _324  and  _325
REMARK  130  A    between atoms: _324  and  _327
REMARK  131  A    between atoms: _327  and  _328
REMARK  132  A    between atoms: _331  and  _333
REMARK  133  A    between atoms: _333  and  _334
REMARK  134  A    between atoms: _333  and  _336
REMARK  135  A    between atoms: _339  and  _341
REMARK  136  A    between atoms: _341  and  _342
REMARK  137  A    between atoms: _344  and  _346
REMARK  138  A    between atoms: _346  and  _347
REMARK  139  A    between atoms: _346  and  _349
REMARK  140  A    between atoms: _349  and  _350
REMARK  141  A    between atoms: _350  and  _351
REMARK  142  A    between atoms: _351  and  _352
REMARK  143  A    between atoms: _352  and  _353
REMARK  144  A    between atoms: _357  and  _359
REMARK  145  A    between atoms: _359  and  _360
REMARK  146  A    between atoms: _359  and  _362
REMARK  147  A    between atoms: _362  and  _363
REMARK  148  A    between atoms: _366  and  _368
REMARK  149  A    between atoms: _368  and  _369
REMARK  150  A    between atoms: _372  and  _374
REMARK  151  A    between atoms: _374  and  _375
REMARK  152  A    between atoms: _377  and  _379
REMARK  153  A    between atoms: _379  and  _380
REMARK  154  A    between atoms: _379  and  _382
REMARK  155  A    between atoms: _382  and  _383
REMARK  156  A    between atoms: _386  and  _388
REMARK  157  A    between atoms: _388  and  _389
REMARK  158  A    between atoms: _388  and  _391
REMARK  159  A    between atoms: _391  and  _392
REMARK  160  A    between atoms: _395  and  _397
REMARK  161  A    between atoms: _397  and  _398
REMARK  162  A    between atoms: _401  and  _403
REMARK  163  A    between atoms: _403  and  _404
REMARK  164  A    between atoms: _403  and  _406
REMARK  165  A    between atoms: _406  and  _407
REMARK  166  A    between atoms: _407  and  _408
REMARK  167  A    between atoms: _411  and  _413
REMARK  168  A    between atoms: _413  and  _414
REMARK  169  A    between atoms: _413  and  _416
REMARK  170  A    between atoms: _419  and  _421
REMARK  171  A    between atoms: _421  and  _422
REMARK  172  A    between atoms: _421  and  _424
REMARK  173  A    between atoms: _424  and  _425
REMARK  174  A    between atoms: _428  and  _430
REMARK  175  A    between atoms: _430  and  _431
REMARK  176  A    between atoms: _433  and  _435
REMARK  177  A    between atoms: _435  and  _436
REMARK  178  A    between atoms: _435  and  _438
REMARK  179  A    between atoms: _441  and  _443
REMARK  180  A    between atoms: _443  and  _444
REMARK  181  A    between atoms: _446  and  _448
REMARK  182  A    between atoms: _448  and  _449
REMARK  183  A    between atoms: _448  and  _451
REMARK  184  A    between atoms: _451  and  _452
REMARK  185  A    between atoms: _455  and  _457
REMARK  186  A    between atoms: _457  and  _458
REMARK  187  A    between atoms: _457  and  _460
REMARK  188  A    between atoms: _460  and  _461
REMARK  189  A    between atoms: _466  and  _468
REMARK  190  A    between atoms: _468  and  _469
REMARK  191  A    between atoms: _468  and  _471
REMARK  192  A    between atoms: _474  and  _476
REMARK  193  A    between atoms: _476  and  _477
REMARK  194  A    between atoms: _476  and  _479
REMARK  195  A    between atoms: _479  and  _480
REMARK  196  A    between atoms: _480  and  _481
REMARK  197  A    between atoms: _486  and  _488
REMARK  198  A    between atoms: _488  and  _489
REMARK  199  A    between atoms: _493  and  _494
REMARK  200  A    between atoms: _499  and  _501
REMARK  201  A    between atoms: _501  and  _502
REMARK  202  A    between atoms: _501  and  _504
REMARK  203  A    between atoms: _504  and  _505
REMARK  204  A    between atoms: _505  and  _506
REMARK  205  A    between atoms: _509  and  _511
REMARK  206  A    between atoms: _511  and  _512
REMARK  207  A    between atoms: _511  and  _514
REMARK  208  A    between atoms: _517  and  _519
REMARK  209  A    between atoms: _519  and  _520
REMARK  210  A    between atoms: _519  and  _522
REMARK  211  A    between atoms: _522  and  _523
REMARK  212  A    between atoms: _527  and  _528
REMARK  213  A    between atoms: _533  and  _535
REMARK  214  A    between atoms: _535  and  _536
REMARK  215  A    between atoms: _535  and  _538
REMARK  216  A    between atoms: _538  and  _539
REMARK  217  A    between atoms: _542  and  _544
REMARK  218  A    between atoms: _544  and  _545
REMARK  219  A    between atoms: _548  and  _550
REMARK  220  A    between atoms: _550  and  _551
REMARK  221  A    between atoms: _550  and  _553
REMARK  222  A    between atoms: _553  and  _554
REMARK  223  A    between atoms: _557  and  _559
REMARK  224  A    between atoms: _559  and  _560
REMARK  225  A    between atoms: _559  and  _562
REMARK  226  A    between atoms: _562  and  _563
REMARK  227  A    between atoms: _565  and  _567
REMARK  228  A    between atoms: _567  and  _568
REMARK  229  A    between atoms: _570  and  _572
REMARK  230  A    between atoms: _572  and  _573
REMARK  231  A    between atoms: _572  and  _575
REMARK  232  A    between atoms: _575  and  _576
REMARK  233  A    between atoms: _579  and  _581
REMARK  234  A    between atoms: _581  and  _582
REMARK  235  A    between atoms: _581  and  _584
REMARK                            x       y       z     vdW  Elec       q    Type
REMARK                         _______ _______ _______ _____ _____    ______ ____
ROOT
ATOM      1  C   PRO A   4      -9.867   6.444  10.044  0.00  0.00    +0.241 C 
ATOM      2  O   PRO A   4     -11.021   6.790  10.298  0.00  0.00    -0.273 OA
ATOM      3  N   ASP A   5      -9.575   5.381   9.301  0.00  0.00    -0.297 N 
ATOM      4  H   ASP A   5      -8.579   5.124   9.145  0.00  0.00    +0.150 HD
ENDROOT
BRANCH   1   8
ATOM      5  C   ASP A   3      -7.520   5.509  11.862  0.00  0.00    +0.244 C 
ATOM      6  O   ASP A   3      -8.537   5.199  12.480  0.00  0.00    -0.273 OA
ATOM      7  N   PRO A   4      -7.507   6.473  10.926  0.00  0.00    -0.272 N 
ATOM      8  CA  PRO A   4      -8.702   7.265  10.602  0.00  0.00    +0.152 C 
ATOM      9  CB  PRO A   4      -8.191   8.256   9.546  0.00  0.00    +0.031 C 
ATOM     10  CG  PRO A   4      -6.941   7.642   9.007  0.00  0.00    +0.024 C 
ATOM     11  CD  PRO A   4      -6.330   6.926  10.167  0.00  0.00    +0.094 C 
BRANCH   5  12
ATOM     12  CA  ASP A   3      -6.199   4.788  12.139  0.00  0.00    +0.160 C 
BRANCH  12  14
ATOM     13  C   VAL A   2      -4.834   4.137  14.057  0.00  0.00    +0.241 C 
ATOM     14  N   ASP A   3      -5.994   4.579  13.573  0.00  0.00    -0.297 N 
ATOM     15  H   ASP A   3      -6.774   4.781  14.231  0.00  0.00    +0.150 HD
ATOM     16  O   VAL A   2      -3.836   3.987  13.353  0.00  0.00    -0.273 OA
BRANCH  13  17
ATOM     17  CA  VAL A   2      -4.769   3.809  15.555  0.00  0.00    +0.148 C 
BRANCH  17  20
ATOM     18  C   GLU A   1      -4.726   5.217  17.528  0.00  0.00    +0.238 C 
ATOM     19  O   GLU A   1      -3.551   4.929  17.752  0.00  0.00    -0.274 OA
ATOM     20  N   VAL A   2      -5.370   4.804  16.439  0.00  0.00    -0.297 N 
ATOM     21  H   VAL A   2      -6.308   5.193  16.216  0.00  0.00    +0.150 HD
BRANCH  18  22
ATOM     22  CA  GLU A   1      -5.510   6.076  18.516  0.00  0.00    +0.145 C 
BRANCH  22  23
ATOM     23  N   GLU A   1      -6.640   6.751  17.890  0.00  0.00    -0.238 NA
ATOM     24  H   GLU A   1      -7.578   6.303  17.919  0.00  0.00    +0.142 HD
ENDBRANCH  22  23
BRANCH  22  25
ATOM     25  CB  GLU A   1      -5.983   5.200  19.681  0.00  0.00    +0.038 C 
BRANCH  25  26
ATOM     26  CG  GLU A   1      -6.345   5.953  20.949  0.00  0.00    +0.116 C 
BRANCH  26  27
ATOM     27  CD  GLU A   1      -6.778   5.022  22.069  0.00  0.00    +0.365 C 
ATOM     28  OE2 GLU A   1      -6.052   4.928  23.082  0.00  0.00    -0.246 OA
ATOM     29  OE1 GLU A   1      -7.839   4.377  21.934  0.00  0.00    -0.246 OA
ENDBRANCH  26  27
ENDBRANCH  25  26
ENDBRANCH  22  25
ENDBRANCH  18  22
ENDBRANCH  17  20
BRANCH  17  30
ATOM     30  CB  VAL A   2      -5.415   2.418  15.783  0.00  0.00    +0.027 C 
ATOM     31  CG2 VAL A   2      -4.954   1.829  17.108  0.00  0.00    +0.002 C 
ATOM     32  CG1 VAL A   2      -6.937   2.508  15.742  0.00  0.00    +0.002 C 
ENDBRANCH  17  30
ENDBRANCH  13  17
ENDBRANCH  12  14
BRANCH  12  33
ATOM     33  CB  ASP A   3      -6.170   3.446  11.398  0.00  0.00    +0.143 C 
BRANCH  33  34
ATOM     34  CG  ASP A   3      -6.030   3.608   9.897  0.00  0.00    +0.367 C 
ATOM     35  OD2 ASP A   3      -4.883   3.605   9.405  0.00  0.00    -0.246 OA
ATOM     36  OD1 ASP A   3      -7.064   3.741   9.210  0.00  0.00    -0.246 OA
ENDBRANCH  33  34
ENDBRANCH  12  33
ENDBRANCH   5  12
ENDBRANCH   1   8
BRANCH   3  37
ATOM     37  CA  ASP A   5     -10.630   4.567   8.700  0.00  0.00    +0.160 C 
BRANCH  37  38
ATOM     38  C   ASP A   5     -11.047   3.413   9.604  0.00  0.00    +0.241 C 
ATOM     39  N   ALA A   6     -10.604   3.453  10.855  0.00  0.00    -0.297 N 
ATOM     40  H   ALA A   6     -10.024   4.258  11.166  0.00  0.00    +0.150 HD
ATOM     41  O   ASP A   5     -11.762   2.505   9.177  0.00  0.00    -0.273 OA
BRANCH  39  42
ATOM     42  CA  ALA A   6     -10.916   2.390  11.799  0.00  0.00    +0.149 C 
ATOM     43  CB  ALA A   6      -9.783   2.221  12.798  0.00  0.00    +0.031 C 
BRANCH  42  44
ATOM     44  C   ALA A   6     -12.225   2.655  12.531  0.00  0.00    +0.241 C 
ATOM     45  N   THR A   7     -12.809   1.591  13.069  0.00  0.00    -0.295 N 
ATOM     46  H   THR A   7     -12.434   0.646  12.852  0.00  0.00    +0.150 HD
ATOM     47  O   ALA A   6     -12.697   3.789  12.600  0.00  0.00    -0.273 OA
BRANCH  45  48
ATOM     48  CA  THR A   7     -13.958   1.708  13.953  0.00  0.00    +0.176 C 
BRANCH  48  49
ATOM     49  C   THR A   7     -13.836   0.656  15.045  0.00  0.00    +0.243 C 
ATOM     50  N   SER A   8     -14.692   0.744  16.055  0.00  0.00    -0.296 N 
ATOM     51  H   SER A   8     -15.375   1.528  16.075  0.00  0.00    +0.150 HD
ATOM     52  O   THR A   7     -12.972  -0.215  14.975  0.00  0.00    -0.273 OA
BRANCH  50  53
ATOM     53  CA  SER A   8     -14.698  -0.232  17.137  0.00  0.00    +0.166 C 
BRANCH  53  54
ATOM     54  CB  SER A   8     -16.125  -0.523  17.573  0.00  0.00    +0.229 C 
ATOM     55  OG  SER A   8     -17.054   0.174  17.172  0.00  0.00    -0.286 OA
ENDBRANCH  53  54
BRANCH  53  56
ATOM     56  C   SER A   8     -13.875   0.267  18.326  0.00  0.00    +0.165 C 
BRANCH  56  57
ATOM     57  O   SER A   8     -14.508   1.366  18.959  0.00  0.00    -0.380 OA
ATOM     58  H   SER A   8     -14.608   2.106  18.310  0.00  0.00    +0.211 HD
ENDBRANCH  56  57
ENDBRANCH  53  56
ENDBRANCH  50  53
ENDBRANCH  48  49
BRANCH  48  59
ATOM     59  CB  THR A   7     -15.292   1.538  13.203  0.00  0.00    +0.137 C 
ATOM     60  CG2 THR A   7     -15.469   0.098  12.739  0.00  0.00    +0.034 C 
BRANCH  59  61
ATOM     61  OG1 THR A   7     -16.377   1.895  14.068  0.00  0.00    -0.382 OA
ATOM     62  HG1 THR A   7     -17.233   1.785  13.584  0.00  0.00    +0.210 HD
ENDBRANCH  59  61
ENDBRANCH  48  59
ENDBRANCH  45  48
ENDBRANCH  42  44
ENDBRANCH  39  42
ENDBRANCH  37  38
BRANCH  37  63
ATOM     63  CB  ASP A   5     -10.181   4.023   7.342  0.00  0.00    +0.143 C 
BRANCH  63  64
ATOM     64  CG  ASP A   5      -9.933   5.121   6.329  0.00  0.00    +0.367 C 
ATOM     65  OD2 ASP A   5      -8.753   5.442   6.075  0.00  0.00    -0.246 OA
ATOM     66  OD1 ASP A   5     -10.919   5.662   5.786  0.00  0.00    -0.246 OA
ENDBRANCH  63  64
ENDBRANCH  37  63
ENDBRANCH   3  37
TORSDOF 27
REMARK  Name = ../refined-set-2016/4xtw/4xtw_pocket.pdb
REMARK  235 active torsions:
REMARK  status: ('A' for Active; 'I' for Inactive)
REMARK    1  A    between atoms: _1  and  _3
REMARK    2  A    between atoms: _3  and  _4
REMARK    3  A    between atoms: _3  and  _6
REMARK    4  A    between atoms: _6  and  _7
REMARK    5  A    between atoms: _10  and  _12
REMARK    6  A    between atoms: _12  and  _13
REMARK    7  A    between atoms: _15  and  _17
REMARK    8  A    between atoms: _17  and  _18
REMARK    9  A    between atoms: _17  and  _20
REMARK   10  A    between atoms: _20  and  _21
REMARK   11  A    between atoms: _23  and  _25
REMARK   12  A    between atoms: _25  and  _26
REMARK   13  A    between atoms: _25  and  _28
REMARK   14  A    between atoms: _28  and  _29
REMARK   15  A    between atoms: _32  and  _34
REMARK   16  A    between atoms: _34  and  _35
REMARK   17  A    between atoms: _34  and  _37
REMARK   18  A    between atoms: _37  and  _38
REMARK   19  A    between atoms: _43  and  _45
REMARK   20  A    between atoms: _45  and  _46
REMARK   21  A    between atoms: _49  and  _51
REMARK   22  A    between atoms: _51  and  _52
REMARK   23  A    between atoms: _51  and  _54
REMARK   24  A    between atoms: _54  and  _55
REMARK   25  A    between atoms: _58  and  _60
REMARK   26  A    between atoms: _60  and  _61
REMARK   27  A    between atoms: _60  and  _63
REMARK   28  A    between atoms: _63  and  _64
REMARK   29  A    between atoms: _67  and  _69
REMARK   30  A    between atoms: _69  and  _70
REMARK   31  A    between atoms: _69  and  _72
REMARK   32  A    between atoms: _72  and  _73
REMARK   33  A    between atoms: _76  and  _78
REMARK   34  A    between atoms: _78  and  _79
REMARK   35  A    between atoms: _82  and  _84
REMARK   36  A    between atoms: _84  and  _85
REMARK   37  A    between atoms: _84  and  _87
REMARK   38  A    between atoms: _87  and  _88
REMARK   39  A    between atoms: _88  and  _89
REMARK   40  A    between atoms: _94  and  _96
REMARK   41  A    between atoms: _96  and  _97
REMARK   42  A    between atoms: _96  and  _99
REMARK   43  A    between atoms: _99  and  _100
REMARK   44  A    between atoms: _103  and  _105
REMARK   45  A    between atoms: _105  and  _106
REMARK   46  A    between atoms: _109  and  _111
REMARK   47  A    between atoms: _111  and  _112
REMARK   48  A    between atoms: _114  and  _116
REMARK   49  A    between atoms: _116  and  _117
REMARK   50  A    between atoms: _116  and  _119
REMARK   51  A    between atoms: _119  and  _120
REMARK   52  A    between atoms: _120  and  _121
REMARK   53  A    between atoms: _121  and  _122
REMARK   54  A    between atoms: _131  and  _133
REMARK   55  A    between atoms: _133  and  _134
REMARK   56  A    between atoms: _136  and  _138
REMARK   57  A    between atoms: _138  and  _139
REMARK   58  A    between atoms: _138  and  _141
REMARK   59  A    between atoms: _141  and  _142
REMARK   60  A    between atoms: _142  and  _143
REMARK   61  A    between atoms: _143  and  _144
REMARK   62  A    between atoms: _153  and  _155
REMARK   63  A    between atoms: _155  and  _156
REMARK   64  A    between atoms: _155  and  _158
REMARK   65  A    between atoms: _158  and  _159
REMARK   66  A    between atoms: _164  and  _166
REMARK   67  A    between atoms: _166  and  _167
REMARK   68  A    between atoms: _169  and  _171
REMARK   69  A    between atoms: _171  and  _172
REMARK   70  A    between atoms: _171  and  _174
REMARK   71  A    between atoms: _174  and  _175
REMARK   72  A    between atoms: _175  and  _176
REMARK   73  A    between atoms: _176  and  _177
REMARK   74  A    between atoms: _186  and  _188
REMARK   75  A    between atoms: _188  and  _189
REMARK   76  A    between atoms: _191  and  _193
REMARK   77  A    between atoms: _193  and  _194
REMARK   78  A    between atoms: _193  and  _196
REMARK   79  A    between atoms: _196  and  _197
REMARK   80  A    between atoms: _207  and  _209
REMARK   81  A    between atoms: _209  and  _210
REMARK   82  A    between atoms: _213  and  _215
REMARK   83  A    between atoms: _215  and  _216
REMARK   84  A    between atoms: _219  and  _221
REMARK   85  A    between atoms: _221  and  _222
REMARK   86  A    between atoms: _221  and  _224
REMARK   87  A    between atoms: _224  and  _225
REMARK   88  A    between atoms: _228  and  _230
REMARK   89  A    between atoms: _230  and  _231
REMARK   90  A    between atoms: _230  and  _233
REMARK   91  A    between atoms: _233  and  _234
REMARK   92  A    between atoms: _234  and  _235
REMARK   93  A    between atoms: _240  and  _242
REMARK   94  A    between atoms: _242  and  _243
REMARK   95  A    between atoms: _242  and  _245
REMARK   96  A    between atoms: _245  and  _246
REMARK   97  A    between atoms: _249  and  _251
REMARK   98  A    between atoms: _251  and  _252
REMARK   99  A    between atoms: _251  and  _254
REMARK  100  A    between atoms: _254  and  _255
REMARK  101  A    between atoms: _258  and  _260
REMARK  102  A    between atoms: _260  and  _261
REMARK  103  A    between atoms: _260  and  _263
REMARK  104  A    between atoms: _263  and  _264
REMARK  105  A    between atoms: _267  and  _269
REMARK  106  A    between atoms: _269  and  _270
REMARK  107  A    between atoms: _269  and  _272
REMARK  108  A    between atoms: _272  and  _273
REMARK  109  A    between atoms: _275  and  _277
REMARK  110  A    between atoms: _277  and  _278
REMARK  111  A    between atoms: _277  and  _280
REMARK  112  A    between atoms: _283  and  _285
REMARK  113  A    between atoms: _285  and  _286
REMARK  114  A    between atoms: _285  and  _288
REMARK  115  A    between atoms: _288  and  _289
REMARK  116  A    between atoms: _291  and  _293
REMARK  117  A    between atoms: _293  and  _294
REMARK  118  A    between atoms: _293  and  _296
REMARK  119  A    between atoms: _296  and  _297
REMARK  120  A    between atoms: _297  and  _298
REMARK  121  A    between atoms: _298  and  _299
REMARK  122  A    between atoms: _299  and  _300
REMARK  123  A    between atoms: _305  and  _306
REMARK  124  A    between atoms: _311  and  _313
REMARK  125  A    between atoms: _313  and  _314
REMARK  126  A    between atoms: _313  and  _316
REMARK  127  A    between atoms: _316  and  _317
REMARK  128  A    between atoms: _322  and  _324
REMARK  129  A    between atoms: _324  and  _325
REMARK  130  A    between atoms: _324  and  _327
REMARK  131  A    between atoms: _327  and  _328
REMARK  132  A    between atoms: _331  and  _333
REMARK  133  A    between atoms: _333  and  _334
REMARK  134  A    between atoms: _333  and  _336
REMARK  135  A    between atoms: _339  and  _341
REMARK  136  A    between atoms: _341  and  _342
REMARK  137  A    between atoms: _344  and  _346
REMARK  138  A    between atoms: _346  and  _347
REMARK  139  A    between atoms: _346  and  _349
REMARK  140  A    between atoms: _349  and  _350
REMARK  141  A    between atoms: _350  and  _351
REMARK  142  A    between atoms: _351  and  _352
REMARK  143  A    between atoms: _352  and  _353
REMARK  144  A    between atoms: _357  and  _359
REMARK  145  A    between atoms: _359  and  _360
REMARK  146  A    between atoms: _359  and  _362
REMARK  147  A    between atoms: _362  and  _363
REMARK  148  A    between atoms: _366  and  _368
REMARK  149  A    between atoms: _368  and  _369
REMARK  150  A    between atoms: _372  and  _374
REMARK  151  A    between atoms: _374  and  _375
REMARK  152  A    between atoms: _377  and  _379
REMARK  153  A    between atoms: _379  and  _380
REMARK  154  A    between atoms: _379  and  _382
REMARK  155  A    between atoms: _382  and  _383
REMARK  156  A    between atoms: _386  and  _388
REMARK  157  A    between atoms: _388  and  _389
REMARK  158  A    between atoms: _388  and  _391
REMARK  159  A    between atoms: _391  and  _392
REMARK  160  A    between atoms: _395  and  _397
REMARK  161  A    between atoms: _397  and  _398
REMARK  162  A    between atoms: _401  and  _403
REMARK  163  A    between atoms: _403  and  _404
REMARK  164  A    between atoms: _403  and  _406
REMARK  165  A    between atoms: _406  and  _407
REMARK  166  A    between atoms: _407  and  _408
REMARK  167  A    between atoms: _411  and  _413
REMARK  168  A    between atoms: _413  and  _414
REMARK  169  A    between atoms: _413  and  _416
REMARK  170  A    between atoms: _419  and  _421
REMARK  171  A    between atoms: _421  and  _422
REMARK  172  A    between atoms: _421  and  _424
REMARK  173  A    between atoms: _424  and  _425
REMARK  174  A    between atoms: _428  and  _430
REMARK  175  A    between atoms: _430  and  _431
REMARK  176  A    between atoms: _433  and  _435
REMARK  177  A    between atoms: _435  and  _436
REMARK  178  A    between atoms: _435  and  _438
REMARK  179  A    between atoms: _441  and  _443
REMARK  180  A    between atoms: _443  and  _444
REMARK  181  A    between atoms: _446  and  _448
REMARK  182  A    between atoms: _448  and  _449
REMARK  183  A    between atoms: _448  and  _451
REMARK  184  A    between atoms: _451  and  _452
REMARK  185  A    between atoms: _455  and  _457
REMARK  186  A    between atoms: _457  and  _458
REMARK  187  A    between atoms: _457  and  _460
REMARK  188  A    between atoms: _460  and  _461
REMARK  189  A    between atoms: _466  and  _468
REMARK  190  A    between atoms: _468  and  _469
REMARK  191  A    between atoms: _468  and  _471
REMARK  192  A    between atoms: _474  and  _476
REMARK  193  A    between atoms: _476  and  _477
REMARK  194  A    between atoms: _476  and  _479
REMARK  195  A    between atoms: _479  and  _480
REMARK  196  A    between atoms: _480  and  _481
REMARK  197  A    between atoms: _486  and  _488
REMARK  198  A    between atoms: _488  and  _489
REMARK  199  A    between atoms: _493  and  _494
REMARK  200  A    between atoms: _499  and  _501
REMARK  201  A    between atoms: _501  and  _502
REMARK  202  A    between atoms: _501  and  _504
REMARK  203  A    between atoms: _504  and  _505
REMARK  204  A    between atoms: _505  and  _506
REMARK  205  A    between atoms: _509  and  _511
REMARK  206  A    between atoms: _511  and  _512
REMARK  207  A    between atoms: _511  and  _514
REMARK  208  A    between atoms: _517  and  _519
REMARK  209  A    between atoms: _519  and  _520
REMARK  210  A    between atoms: _519  and  _522
REMARK  211  A    between atoms: _522  and  _523
REMARK  212  A    between atoms: _527  and  _528
REMARK  213  A    between atoms: _533  and  _535
REMARK  214  A    between atoms: _535  and  _536
REMARK  215  A    between atoms: _535  and  _538
REMARK  216  A    between atoms: _538  and  _539
REMARK  217  A    between atoms: _542  and  _544
REMARK  218  A    between atoms: _544  and  _545
REMARK  219  A    between atoms: _548  and  _550
REMARK  220  A    between atoms: _550  and  _551
REMARK  221  A    between atoms: _550  and  _553
REMARK  222  A    between atoms: _553  and  _554
REMARK  223  A    between atoms: _557  and  _559
REMARK  224  A    between atoms: _559  and  _560
REMARK  225  A    between atoms: _559  and  _562
REMARK  226  A    between atoms: _562  and  _563
REMARK  227  A    between atoms: _565  and  _567
REMARK  228  A    between atoms: _567  and  _568
REMARK  229  A    between atoms: _570  and  _572
REMARK  230  A    between atoms: _572  and  _573
REMARK  231  A    between atoms: _572  and  _575
REMARK  232  A    between atoms: _575  and  _576
REMARK  233  A    between atoms: _579  and  _581
REMARK  234  A    between atoms: _581  and  _582
REMARK  235  A    between atoms: _581  and  _584
REMARK                            x       y       z     vdW  Elec       q    Type
REMARK                         _______ _______ _______ _____ _____    ______ ____
ROOT
ATOM      1  CA  ASP A   2      -6.271  -4.328  -1.365  0.00  0.00    +0.160 C 
ENDROOT
BRANCH   1   4
ATOM      2  C   GLY A   1      -5.368  -6.470  -2.082  0.00  0.00    +0.240 C 
ATOM      3  O   GLY A   1      -5.979  -7.081  -1.206  0.00  0.00    -0.274 OA
ATOM      4  N   ASP A   2      -5.439  -5.152  -2.230  0.00  0.00    -0.297 N 
ATOM      5  H   ASP A   2      -4.886  -4.697  -2.984  0.00  0.00    +0.150 HD
BRANCH   2   6
ATOM      6  CA  GLY A   1      -4.477  -7.201  -3.064  0.00  0.00    +0.169 C 
BRANCH   6   7
ATOM      7  N   GLY A   1      -4.385  -8.619  -2.778  0.00  0.00    -0.236 NA
ATOM      8  H   GLY A   1      -4.628  -8.963  -1.827  0.00  0.00    +0.142 HD
ENDBRANCH   6   7
ENDBRANCH   2   6
ENDBRANCH   1   4
BRANCH   1   9
ATOM      9  C   ASP A   2      -7.497  -3.844  -2.123  0.00  0.00    +0.241 C 
ATOM     10  N   VAL A   3      -8.662  -3.979  -1.502  0.00  0.00    -0.298 N 
ATOM     11  H   VAL A   3      -8.680  -4.331  -0.524  0.00  0.00    +0.150 HD
ATOM     12  O   ASP A   2      -7.391  -3.359  -3.248  0.00  0.00    -0.273 OA
BRANCH  10  13
ATOM     13  CA  VAL A   3      -9.915  -3.644  -2.163  0.00  0.00    +0.137 C 
BRANCH  13  14
ATOM     14  CB  VAL A   3     -10.950  -4.778  -1.995  0.00  0.00    +0.026 C 
ATOM     15  CG2 VAL A   3     -10.415  -6.072  -2.593  0.00  0.00    +0.002 C 
ATOM     16  CG1 VAL A   3     -12.274  -4.399  -2.638  0.00  0.00    +0.002 C 
ENDBRANCH  13  14
BRANCH  13  17
ATOM     17  C   VAL A   3     -10.507  -2.339  -1.637  0.00  0.00    +0.227 C 
ATOM     18  O   VAL A   3     -10.557  -2.105  -0.429  0.00  0.00    -0.286 OA
ENDBRANCH  13  17
ENDBRANCH  10  13
ENDBRANCH   1   9
BRANCH   1  19
ATOM     19  CB  ASP A   2      -5.470  -3.144  -0.825  0.00  0.00    +0.143 C 
BRANCH  19  20
ATOM     20  CG  ASP A   2      -4.147  -3.570  -0.222  0.00  0.00    +0.367 C 
ATOM     21  OD2 ASP A   2      -4.129  -4.564   0.533  0.00  0.00    -0.246 OA
ATOM     22  OD1 ASP A   2      -3.123  -2.919  -0.513  0.00  0.00    -0.246 OA
ENDBRANCH  19  20
ENDBRANCH   1  19
TORSDOF 9
REMARK  Name = ../refined-set-2016/4xtw/4xtw_pocket.pdb
REMARK  235 active torsions:
REMARK  status: ('A' for Active; 'I' for Inactive)
REMARK    1  A    between atoms: _1  and  _3
REMARK    2  A    between atoms: _3  and  _4
REMARK    3  A    between atoms: _3  and  _6
REMARK    4  A    between atoms: _6  and  _7
REMARK    5  A    between atoms: _10  and  _12
REMARK    6  A    between atoms: _12  and  _13
REMARK    7  A    between atoms: _15  and  _17
REMARK    8  A    between atoms: _17  and  _18
REMARK    9  A    between atoms: _17  and  _20
REMARK   10  A    between atoms: _20  and  _21
REMARK   11  A    between atoms: _23  and  _25
REMARK   12  A    between atoms: _25  and  _26
REMARK   13  A    between atoms: _25  and  _28
REMARK   14  A    between atoms: _28  and  _29
REMARK   15  A    between atoms: _32  and  _34
REMARK   16  A    between atoms: _34  and  _35
REMARK   17  A    between atoms: _34  and  _37
REMARK   18  A    between atoms: _37  and  _38
REMARK   19  A    between atoms: _43  and  _45
REMARK   20  A    between atoms: _45  and  _46
REMARK   21  A    between atoms: _49  and  _51
REMARK   22  A    between atoms: _51  and  _52
REMARK   23  A    between atoms: _51  and  _54
REMARK   24  A    between atoms: _54  and  _55
REMARK   25  A    between atoms: _58  and  _60
REMARK   26  A    between atoms: _60  and  _61
REMARK   27  A    between atoms: _60  and  _63
REMARK   28  A    between atoms: _63  and  _64
REMARK   29  A    between atoms: _67  and  _69
REMARK   30  A    between atoms: _69  and  _70
REMARK   31  A    between atoms: _69  and  _72
REMARK   32  A    between atoms: _72  and  _73
REMARK   33  A    between atoms: _76  and  _78
REMARK   34  A    between atoms: _78  and  _79
REMARK   35  A    between atoms: _82  and  _84
REMARK   36  A    between atoms: _84  and  _85
REMARK   37  A    between atoms: _84  and  _87
REMARK   38  A    between atoms: _87  and  _88
REMARK   39  A    between atoms: _88  and  _89
REMARK   40  A    between atoms: _94  and  _96
REMARK   41  A    between atoms: _96  and  _97
REMARK   42  A    between atoms: _96  and  _99
REMARK   43  A    between atoms: _99  and  _100
REMARK   44  A    between atoms: _103  and  _105
REMARK   45  A    between atoms: _105  and  _106
REMARK   46  A    between atoms: _109  and  _111
REMARK   47  A    between atoms: _111  and  _112
REMARK   48  A    between atoms: _114  and  _116
REMARK   49  A    between atoms: _116  and  _117
REMARK   50  A    between atoms: _116  and  _119
REMARK   51  A    between atoms: _119  and  _120
REMARK   52  A    between atoms: _120  and  _121
REMARK   53  A    between atoms: _121  and  _122
REMARK   54  A    between atoms: _131  and  _133
REMARK   55  A    between atoms: _133  and  _134
REMARK   56  A    between atoms: _136  and  _138
REMARK   57  A    between atoms: _138  and  _139
REMARK   58  A    between atoms: _138  and  _141
REMARK   59  A    between atoms: _141  and  _142
REMARK   60  A    between atoms: _142  and  _143
REMARK   61  A    between atoms: _143  and  _144
REMARK   62  A    between atoms: _153  and  _155
REMARK   63  A    between atoms: _155  and  _156
REMARK   64  A    between atoms: _155  and  _158
REMARK   65  A    between atoms: _158  and  _159
REMARK   66  A    between atoms: _164  and  _166
REMARK   67  A    between atoms: _166  and  _167
REMARK   68  A    between atoms: _169  and  _171
REMARK   69  A    between atoms: _171  and  _172
REMARK   70  A    between atoms: _171  and  _174
REMARK   71  A    between atoms: _174  and  _175
REMARK   72  A    between atoms: _175  and  _176
REMARK   73  A    between atoms: _176  and  _177
REMARK   74  A    between atoms: _186  and  _188
REMARK   75  A    between atoms: _188  and  _189
REMARK   76  A    between atoms: _191  and  _193
REMARK   77  A    between atoms: _193  and  _194
REMARK   78  A    between atoms: _193  and  _196
REMARK   79  A    between atoms: _196  and  _197
REMARK   80  A    between atoms: _207  and  _209
REMARK   81  A    between atoms: _209  and  _210
REMARK   82  A    between atoms: _213  and  _215
REMARK   83  A    between atoms: _215  and  _216
REMARK   84  A    between atoms: _219  and  _221
REMARK   85  A    between atoms: _221  and  _222
REMARK   86  A    between atoms: _221  and  _224
REMARK   87  A    between atoms: _224  and  _225
REMARK   88  A    between atoms: _228  and  _230
REMARK   89  A    between atoms: _230  and  _231
REMARK   90  A    between atoms: _230  and  _233
REMARK   91  A    between atoms: _233  and  _234
REMARK   92  A    between atoms: _234  and  _235
REMARK   93  A    between atoms: _240  and  _242
REMARK   94  A    between atoms: _242  and  _243
REMARK   95  A    between atoms: _242  and  _245
REMARK   96  A    between atoms: _245  and  _246
REMARK   97  A    between atoms: _249  and  _251
REMARK   98  A    between atoms: _251  and  _252
REMARK   99  A    between atoms: _251  and  _254
REMARK  100  A    between atoms: _254  and  _255
REMARK  101  A    between atoms: _258  and  _260
REMARK  102  A    between atoms: _260  and  _261
REMARK  103  A    between atoms: _260  and  _263
REMARK  104  A    between atoms: _263  and  _264
REMARK  105  A    between atoms: _267  and  _269
REMARK  106  A    between atoms: _269  and  _270
REMARK  107  A    between atoms: _269  and  _272
REMARK  108  A    between atoms: _272  and  _273
REMARK  109  A    between atoms: _275  and  _277
REMARK  110  A    between atoms: _277  and  _278
REMARK  111  A    between atoms: _277  and  _280
REMARK  112  A    between atoms: _283  and  _285
REMARK  113  A    between atoms: _285  and  _286
REMARK  114  A    between atoms: _285  and  _288
REMARK  115  A    between atoms: _288  and  _289
REMARK  116  A    between atoms: _291  and  _293
REMARK  117  A    between atoms: _293  and  _294
REMARK  118  A    between atoms: _293  and  _296
REMARK  119  A    between atoms: _296  and  _297
REMARK  120  A    between atoms: _297  and  _298
REMARK  121  A    between atoms: _298  and  _299
REMARK  122  A    between atoms: _299  and  _300
REMARK  123  A    between atoms: _305  and  _306
REMARK  124  A    between atoms: _311  and  _313
REMARK  125  A    between atoms: _313  and  _314
REMARK  126  A    between atoms: _313  and  _316
REMARK  127  A    between atoms: _316  and  _317
REMARK  128  A    between atoms: _322  and  _324
REMARK  129  A    between atoms: _324  and  _325
REMARK  130  A    between atoms: _324  and  _327
REMARK  131  A    between atoms: _327  and  _328
REMARK  132  A    between atoms: _331  and  _333
REMARK  133  A    between atoms: _333  and  _334
REMARK  134  A    between atoms: _333  and  _336
REMARK  135  A    between atoms: _339  and  _341
REMARK  136  A    between atoms: _341  and  _342
REMARK  137  A    between atoms: _344  and  _346
REMARK  138  A    between atoms: _346  and  _347
REMARK  139  A    between atoms: _346  and  _349
REMARK  140  A    between atoms: _349  and  _350
REMARK  141  A    between atoms: _350  and  _351
REMARK  142  A    between atoms: _351  and  _352
REMARK  143  A    between atoms: _352  and  _353
REMARK  144  A    between atoms: _357  and  _359
REMARK  145  A    between atoms: _359  and  _360
REMARK  146  A    between atoms: _359  and  _362
REMARK  147  A    between atoms: _362  and  _363
REMARK  148  A    between atoms: _366  and  _368
REMARK  149  A    between atoms: _368  and  _369
REMARK  150  A    between atoms: _372  and  _374
REMARK  151  A    between atoms: _374  and  _375
REMARK  152  A    between atoms: _377  and  _379
REMARK  153  A    between atoms: _379  and  _380
REMARK  154  A    between atoms: _379  and  _382
REMARK  155  A    between atoms: _382  and  _383
REMARK  156  A    between atoms: _386  and  _388
REMARK  157  A    between atoms: _388  and  _389
REMARK  158  A    between atoms: _388  and  _391
REMARK  159  A    between atoms: _391  and  _392
REMARK  160  A    between atoms: _395  and  _397
REMARK  161  A    between atoms: _397  and  _398
REMARK  162  A    between atoms: _401  and  _403
REMARK  163  A    between atoms: _403  and  _404
REMARK  164  A    between atoms: _403  and  _406
REMARK  165  A    between atoms: _406  and  _407
REMARK  166  A    between atoms: _407  and  _408
REMARK  167  A    between atoms: _411  and  _413
REMARK  168  A    between atoms: _413  and  _414
REMARK  169  A    between atoms: _413  and  _416
REMARK  170  A    between atoms: _419  and  _421
REMARK  171  A    between atoms: _421  and  _422
REMARK  172  A    between atoms: _421  and  _424
REMARK  173  A    between atoms: _424  and  _425
REMARK  174  A    between atoms: _428  and  _430
REMARK  175  A    between atoms: _430  and  _431
REMARK  176  A    between atoms: _433  and  _435
REMARK  177  A    between atoms: _435  and  _436
REMARK  178  A    between atoms: _435  and  _438
REMARK  179  A    between atoms: _441  and  _443
REMARK  180  A    between atoms: _443  and  _444
REMARK  181  A    between atoms: _446  and  _448
REMARK  182  A    between atoms: _448  and  _449
REMARK  183  A    between atoms: _448  and  _451
REMARK  184  A    between atoms: _451  and  _452
REMARK  185  A    between atoms: _455  and  _457
REMARK  186  A    between atoms: _457  and  _458
REMARK  187  A    between atoms: _457  and  _460
REMARK  188  A    between atoms: _460  and  _461
REMARK  189  A    between atoms: _466  and  _468
REMARK  190  A    between atoms: _468  and  _469
REMARK  191  A    between atoms: _468  and  _471
REMARK  192  A    between atoms: _474  and  _476
REMARK  193  A    between atoms: _476  and  _477
REMARK  194  A    between atoms: _476  and  _479
REMARK  195  A    between atoms: _479  and  _480
REMARK  196  A    between atoms: _480  and  _481
REMARK  197  A    between atoms: _486  and  _488
REMARK  198  A    between atoms: _488  and  _489
REMARK  199  A    between atoms: _493  and  _494
REMARK  200  A    between atoms: _499  and  _501
REMARK  201  A    between atoms: _501  and  _502
REMARK  202  A    between atoms: _501  and  _504
REMARK  203  A    between atoms: _504  and  _505
REMARK  204  A    between atoms: _505  and  _506
REMARK  205  A    between atoms: _509  and  _511
REMARK  206  A    between atoms: _511  and  _512
REMARK  207  A    between atoms: _511  and  _514
REMARK  208  A    between atoms: _517  and  _519
REMARK  209  A    between atoms: _519  and  _520
REMARK  210  A    between atoms: _519  and  _522
REMARK  211  A    between atoms: _522  and  _523
REMARK  212  A    between atoms: _527  and  _528
REMARK  213  A    between atoms: _533  and  _535
REMARK  214  A    between atoms: _535  and  _536
REMARK  215  A    between atoms: _535  and  _538
REMARK  216  A    between atoms: _538  and  _539
REMARK  217  A    between atoms: _542  and  _544
REMARK  218  A    between atoms: _544  and  _545
REMARK  219  A    between atoms: _548  and  _550
REMARK  220  A    between atoms: _550  and  _551
REMARK  221  A    between atoms: _550  and  _553
REMARK  222  A    between atoms: _553  and  _554
REMARK  223  A    between atoms: _557  and  _559
REMARK  224  A    between atoms: _559  and  _560
REMARK  225  A    between atoms: _559  and  _562
REMARK  226  A    between atoms: _562  and  _563
REMARK  227  A    between atoms: _565  and  _567
REMARK  228  A    between atoms: _567  and  _568
REMARK  229  A    between atoms: _570  and  _572
REMARK  230  A    between atoms: _572  and  _573
REMARK  231  A    between atoms: _572  and  _575
REMARK  232  A    between atoms: _575  and  _576
REMARK  233  A    between atoms: _579  and  _581
REMARK  234  A    between atoms: _581  and  _582
REMARK  235  A    between atoms: _581  and  _584
REMARK                            x       y       z     vdW  Elec       q    Type
REMARK                         _______ _______ _______ _____ _____    ______ ____
ROOT
ATOM      1  O   HOH     1      -9.048  -5.369   0.994  0.00  0.00    +0.000 OA
ENDROOT
TORSDOF 0
REMARK  Name = ../refined-set-2016/4xtw/4xtw_pocket.pdb
REMARK  235 active torsions:
REMARK  status: ('A' for Active; 'I' for Inactive)
REMARK    1  A    between atoms: _1  and  _3
REMARK    2  A    between atoms: _3  and  _4
REMARK    3  A    between atoms: _3  and  _6
REMARK    4  A    between atoms: _6  and  _7
REMARK    5  A    between atoms: _10  and  _12
REMARK    6  A    between atoms: _12  and  _13
REMARK    7  A    between atoms: _15  and  _17
REMARK    8  A    between atoms: _17  and  _18
REMARK    9  A    between atoms: _17  and  _20
REMARK   10  A    between atoms: _20  and  _21
REMARK   11  A    between atoms: _23  and  _25
REMARK   12  A    between atoms: _25  and  _26
REMARK   13  A    between atoms: _25  and  _28
REMARK   14  A    between atoms: _28  and  _29
REMARK   15  A    between atoms: _32  and  _34
REMARK   16  A    between atoms: _34  and  _35
REMARK   17  A    between atoms: _34  and  _37
REMARK   18  A    between atoms: _37  and  _38
REMARK   19  A    between atoms: _43  and  _45
REMARK   20  A    between atoms: _45  and  _46
REMARK   21  A    between atoms: _49  and  _51
REMARK   22  A    between atoms: _51  and  _52
REMARK   23  A    between atoms: _51  and  _54
REMARK   24  A    between atoms: _54  and  _55
REMARK   25  A    between atoms: _58  and  _60
REMARK   26  A    between atoms: _60  and  _61
REMARK   27  A    between atoms: _60  and  _63
REMARK   28  A    between atoms: _63  and  _64
REMARK   29  A    between atoms: _67  and  _69
REMARK   30  A    between atoms: _69  and  _70
REMARK   31  A    between atoms: _69  and  _72
REMARK   32  A    between atoms: _72  and  _73
REMARK   33  A    between atoms: _76  and  _78
REMARK   34  A    between atoms: _78  and  _79
REMARK   35  A    between atoms: _82  and  _84
REMARK   36  A    between atoms: _84  and  _85
REMARK   37  A    between atoms: _84  and  _87
REMARK   38  A    between atoms: _87  and  _88
REMARK   39  A    between atoms: _88  and  _89
REMARK   40  A    between atoms: _94  and  _96
REMARK   41  A    between atoms: _96  and  _97
REMARK   42  A    between atoms: _96  and  _99
REMARK   43  A    between atoms: _99  and  _100
REMARK   44  A    between atoms: _103  and  _105
REMARK   45  A    between atoms: _105  and  _106
REMARK   46  A    between atoms: _109  and  _111
REMARK   47  A    between atoms: _111  and  _112
REMARK   48  A    between atoms: _114  and  _116
REMARK   49  A    between atoms: _116  and  _117
REMARK   50  A    between atoms: _116  and  _119
REMARK   51  A    between atoms: _119  and  _120
REMARK   52  A    between atoms: _120  and  _121
REMARK   53  A    between atoms: _121  and  _122
REMARK   54  A    between atoms: _131  and  _133
REMARK   55  A    between atoms: _133  and  _134
REMARK   56  A    between atoms: _136  and  _138
REMARK   57  A    between atoms: _138  and  _139
REMARK   58  A    between atoms: _138  and  _141
REMARK   59  A    between atoms: _141  and  _142
REMARK   60  A    between atoms: _142  and  _143
REMARK   61  A    between atoms: _143  and  _144
REMARK   62  A    between atoms: _153  and  _155
REMARK   63  A    between atoms: _155  and  _156
REMARK   64  A    between atoms: _155  and  _158
REMARK   65  A    between atoms: _158  and  _159
REMARK   66  A    between atoms: _164  and  _166
REMARK   67  A    between atoms: _166  and  _167
REMARK   68  A    between atoms: _169  and  _171
REMARK   69  A    between atoms: _171  and  _172
REMARK   70  A    between atoms: _171  and  _174
REMARK   71  A    between atoms: _174  and  _175
REMARK   72  A    between atoms: _175  and  _176
REMARK   73  A    between atoms: _176  and  _177
REMARK   74  A    between atoms: _186  and  _188
REMARK   75  A    between atoms: _188  and  _189
REMARK   76  A    between atoms: _191  and  _193
REMARK   77  A    between atoms: _193  and  _194
REMARK   78  A    between atoms: _193  and  _196
REMARK   79  A    between atoms: _196  and  _197
REMARK   80  A    between atoms: _207  and  _209
REMARK   81  A    between atoms: _209  and  _210
REMARK   82  A    between atoms: _213  and  _215
REMARK   83  A    between atoms: _215  and  _216
REMARK   84  A    between atoms: _219  and  _221
REMARK   85  A    between atoms: _221  and  _222
REMARK   86  A    between atoms: _221  and  _224
REMARK   87  A    between atoms: _224  and  _225
REMARK   88  A    between atoms: _228  and  _230
REMARK   89  A    between atoms: _230  and  _231
REMARK   90  A    between atoms: _230  and  _233
REMARK   91  A    between atoms: _233  and  _234
REMARK   92  A    between atoms: _234  and  _235
REMARK   93  A    between atoms: _240  and  _242
REMARK   94  A    between atoms: _242  and  _243
REMARK   95  A    between atoms: _242  and  _245
REMARK   96  A    between atoms: _245  and  _246
REMARK   97  A    between atoms: _249  and  _251
REMARK   98  A    between atoms: _251  and  _252
REMARK   99  A    between atoms: _251  and  _254
REMARK  100  A    between atoms: _254  and  _255
REMARK  101  A    between atoms: _258  and  _260
REMARK  102  A    between atoms: _260  and  _261
REMARK  103  A    between atoms: _260  and  _263
REMARK  104  A    between atoms: _263  and  _264
REMARK  105  A    between atoms: _267  and  _269
REMARK  106  A    between atoms: _269  and  _270
REMARK  107  A    between atoms: _269  and  _272
REMARK  108  A    between atoms: _272  and  _273
REMARK  109  A    between atoms: _275  and  _277
REMARK  110  A    between atoms: _277  and  _278
REMARK  111  A    between atoms: _277  and  _280
REMARK  112  A    between atoms: _283  and  _285
REMARK  113  A    between atoms: _285  and  _286
REMARK  114  A    between atoms: _285  and  _288
REMARK  115  A    between atoms: _288  and  _289
REMARK  116  A    between atoms: _291  and  _293
REMARK  117  A    between atoms: _293  and  _294
REMARK  118  A    between atoms: _293  and  _296
REMARK  119  A    between atoms: _296  and  _297
REMARK  120  A    between atoms: _297  and  _298
REMARK  121  A    between atoms: _298  and  _299
REMARK  122  A    between atoms: _299  and  _300
REMARK  123  A    between atoms: _305  and  _306
REMARK  124  A    between atoms: _311  and  _313
REMARK  125  A    between atoms: _313  and  _314
REMARK  126  A    between atoms: _313  and  _316
REMARK  127  A    between atoms: _316  and  _317
REMARK  128  A    between atoms: _322  and  _324
REMARK  129  A    between atoms: _324  and  _325
REMARK  130  A    between atoms: _324  and  _327
REMARK  131  A    between atoms: _327  and  _328
REMARK  132  A    between atoms: _331  and  _333
REMARK  133  A    between atoms: _333  and  _334
REMARK  134  A    between atoms: _333  and  _336
REMARK  135  A    between atoms: _339  and  _341
REMARK  136  A    between atoms: _341  and  _342
REMARK  137  A    between atoms: _344  and  _346
REMARK  138  A    between atoms: _346  and  _347
REMARK  139  A    between atoms: _346  and  _349
REMARK  140  A    between atoms: _349  and  _350
REMARK  141  A    between atoms: _350  and  _351
REMARK  142  A    between atoms: _351  and  _352
REMARK  143  A    between atoms: _352  and  _353
REMARK  144  A    between atoms: _357  and  _359
REMARK  145  A    between atoms: _359  and  _360
REMARK  146  A    between atoms: _359  and  _362
REMARK  147  A    between atoms: _362  and  _363
REMARK  148  A    between atoms: _366  and  _368
REMARK  149  A    between atoms: _368  and  _369
REMARK  150  A    between atoms: _372  and  _374
REMARK  151  A    between atoms: _374  and  _375
REMARK  152  A    between atoms: _377  and  _379
REMARK  153  A    between atoms: _379  and  _380
REMARK  154  A    between atoms: _379  and  _382
REMARK  155  A    between atoms: _382  and  _383
REMARK  156  A    between atoms: _386  and  _388
REMARK  157  A    between atoms: _388  and  _389
REMARK  158  A    between atoms: _388  and  _391
REMARK  159  A    between atoms: _391  and  _392
REMARK  160  A    between atoms: _395  and  _397
REMARK  161  A    between atoms: _397  and  _398
REMARK  162  A    between atoms: _401  and  _403
REMARK  163  A    between atoms: _403  and  _404
REMARK  164  A    between atoms: _403  and  _406
REMARK  165  A    between atoms: _406  and  _407
REMARK  166  A    between atoms: _407  and  _408
REMARK  167  A    between atoms: _411  and  _413
REMARK  168  A    between atoms: _413  and  _414
REMARK  169  A    between atoms: _413  and  _416
REMARK  170  A    between atoms: _419  and  _421
REMARK  171  A    between atoms: _421  and  _422
REMARK  172  A    between atoms: _421  and  _424
REMARK  173  A    between atoms: _424  and  _425
REMARK  174  A    between atoms: _428  and  _430
REMARK  175  A    between atoms: _430  and  _431
REMARK  176  A    between atoms: _433  and  _435
REMARK  177  A    between atoms: _435  and  _436
REMARK  178  A    between atoms: _435  and  _438
REMARK  179  A    between atoms: _441  and  _443
REMARK  180  A    between atoms: _443  and  _444
REMARK  181  A    between atoms: _446  and  _448
REMARK  182  A    between atoms: _448  and  _449
REMARK  183  A    between atoms: _448  and  _451
REMARK  184  A    between atoms: _451  and  _452
REMARK  185  A    between atoms: _455  and  _457
REMARK  186  A    between atoms: _457  and  _458
REMARK  187  A    between atoms: _457  and  _460
REMARK  188  A    between atoms: _460  and  _461
REMARK  189  A    between atoms: _466  and  _468
REMARK  190  A    between atoms: _468  and  _469
REMARK  191  A    between atoms: _468  and  _471
REMARK  192  A    between atoms: _474  and  _476
REMARK  193  A    between atoms: _476  and  _477
REMARK  194  A    between atoms: _476  and  _479
REMARK  195  A    between atoms: _479  and  _480
REMARK  196  A    between atoms: _480  and  _481
REMARK  197  A    between atoms: _486  and  _488
REMARK  198  A    between atoms: _488  and  _489
REMARK  199  A    between atoms: _493  and  _494
REMARK  200  A    between atoms: _499  and  _501
REMARK  201  A    between atoms: _501  and  _502
REMARK  202  A    between atoms: _501  and  _504
REMARK  203  A    between atoms: _504  and  _505
REMARK  204  A    between atoms: _505  and  _506
REMARK  205  A    between atoms: _509  and  _511
REMARK  206  A    between atoms: _511  and  _512
REMARK  207  A    between atoms: _511  and  _514
REMARK  208  A    between atoms: _517  and  _519
REMARK  209  A    between atoms: _519  and  _520
REMARK  210  A    between atoms: _519  and  _522
REMARK  211  A    between atoms: _522  and  _523
REMARK  212  A    between atoms: _527  and  _528
REMARK  213  A    between atoms: _533  and  _535
REMARK  214  A    between atoms: _535  and  _536
REMARK  215  A    between atoms: _535  and  _538
REMARK  216  A    between atoms: _538  and  _539
REMARK  217  A    between atoms: _542  and  _544
REMARK  218  A    between atoms: _544  and  _545
REMARK  219  A    between atoms: _548  and  _550
REMARK  220  A    between atoms: _550  and  _551
REMARK  221  A    between atoms: _550  and  _553
REMARK  222  A    between atoms: _553  and  _554
REMARK  223  A    between atoms: _557  and  _559
REMARK  224  A    between atoms: _559  and  _560
REMARK  225  A    between atoms: _559  and  _562
REMARK  226  A    between atoms: _562  and  _563
REMARK  227  A    between atoms: _565  and  _567
REMARK  228  A    between atoms: _567  and  _568
REMARK  229  A    between atoms: _570  and  _572
REMARK  230  A    between atoms: _572  and  _573
REMARK  231  A    between atoms: _572  and  _575
REMARK  232  A    between atoms: _575  and  _576
REMARK  233  A    between atoms: _579  and  _581
REMARK  234  A    between atoms: _581  and  _582
REMARK  235  A    between atoms: _581  and  _584
REMARK                            x       y       z     vdW  Elec       q    Type
REMARK                         _______ _______ _______ _____ _____    ______ ____
ROOT
ATOM      1  O   HOH     1      -6.513  -2.106   5.756  0.00  0.00    +0.000 OA
ENDROOT
TORSDOF 0
REMARK  Name = ../refined-set-2016/4xtw/4xtw_pocket.pdb
REMARK  235 active torsions:
REMARK  status: ('A' for Active; 'I' for Inactive)
REMARK    1  A    between atoms: _1  and  _3
REMARK    2  A    between atoms: _3  and  _4
REMARK    3  A    between atoms: _3  and  _6
REMARK    4  A    between atoms: _6  and  _7
REMARK    5  A    between atoms: _10  and  _12
REMARK    6  A    between atoms: _12  and  _13
REMARK    7  A    between atoms: _15  and  _17
REMARK    8  A    between atoms: _17  and  _18
REMARK    9  A    between atoms: _17  and  _20
REMARK   10  A    between atoms: _20  and  _21
REMARK   11  A    between atoms: _23  and  _25
REMARK   12  A    between atoms: _25  and  _26
REMARK   13  A    between atoms: _25  and  _28
REMARK   14  A    between atoms: _28  and  _29
REMARK   15  A    between atoms: _32  and  _34
REMARK   16  A    between atoms: _34  and  _35
REMARK   17  A    between atoms: _34  and  _37
REMARK   18  A    between atoms: _37  and  _38
REMARK   19  A    between atoms: _43  and  _45
REMARK   20  A    between atoms: _45  and  _46
REMARK   21  A    between atoms: _49  and  _51
REMARK   22  A    between atoms: _51  and  _52
REMARK   23  A    between atoms: _51  and  _54
REMARK   24  A    between atoms: _54  and  _55
REMARK   25  A    between atoms: _58  and  _60
REMARK   26  A    between atoms: _60  and  _61
REMARK   27  A    between atoms: _60  and  _63
REMARK   28  A    between atoms: _63  and  _64
REMARK   29  A    between atoms: _67  and  _69
REMARK   30  A    between atoms: _69  and  _70
REMARK   31  A    between atoms: _69  and  _72
REMARK   32  A    between atoms: _72  and  _73
REMARK   33  A    between atoms: _76  and  _78
REMARK   34  A    between atoms: _78  and  _79
REMARK   35  A    between atoms: _82  and  _84
REMARK   36  A    between atoms: _84  and  _85
REMARK   37  A    between atoms: _84  and  _87
REMARK   38  A    between atoms: _87  and  _88
REMARK   39  A    between atoms: _88  and  _89
REMARK   40  A    between atoms: _94  and  _96
REMARK   41  A    between atoms: _96  and  _97
REMARK   42  A    between atoms: _96  and  _99
REMARK   43  A    between atoms: _99  and  _100
REMARK   44  A    between atoms: _103  and  _105
REMARK   45  A    between atoms: _105  and  _106
REMARK   46  A    between atoms: _109  and  _111
REMARK   47  A    between atoms: _111  and  _112
REMARK   48  A    between atoms: _114  and  _116
REMARK   49  A    between atoms: _116  and  _117
REMARK   50  A    between atoms: _116  and  _119
REMARK   51  A    between atoms: _119  and  _120
REMARK   52  A    between atoms: _120  and  _121
REMARK   53  A    between atoms: _121  and  _122
REMARK   54  A    between atoms: _131  and  _133
REMARK   55  A    between atoms: _133  and  _134
REMARK   56  A    between atoms: _136  and  _138
REMARK   57  A    between atoms: _138  and  _139
REMARK   58  A    between atoms: _138  and  _141
REMARK   59  A    between atoms: _141  and  _142
REMARK   60  A    between atoms: _142  and  _143
REMARK   61  A    between atoms: _143  and  _144
REMARK   62  A    between atoms: _153  and  _155
REMARK   63  A    between atoms: _155  and  _156
REMARK   64  A    between atoms: _155  and  _158
REMARK   65  A    between atoms: _158  and  _159
REMARK   66  A    between atoms: _164  and  _166
REMARK   67  A    between atoms: _166  and  _167
REMARK   68  A    between atoms: _169  and  _171
REMARK   69  A    between atoms: _171  and  _172
REMARK   70  A    between atoms: _171  and  _174
REMARK   71  A    between atoms: _174  and  _175
REMARK   72  A    between atoms: _175  and  _176
REMARK   73  A    between atoms: _176  and  _177
REMARK   74  A    between atoms: _186  and  _188
REMARK   75  A    between atoms: _188  and  _189
REMARK   76  A    between atoms: _191  and  _193
REMARK   77  A    between atoms: _193  and  _194
REMARK   78  A    between atoms: _193  and  _196
REMARK   79  A    between atoms: _196  and  _197
REMARK   80  A    between atoms: _207  and  _209
REMARK   81  A    between atoms: _209  and  _210
REMARK   82  A    between atoms: _213  and  _215
REMARK   83  A    between atoms: _215  and  _216
REMARK   84  A    between atoms: _219  and  _221
REMARK   85  A    between atoms: _221  and  _222
REMARK   86  A    between atoms: _221  and  _224
REMARK   87  A    between atoms: _224  and  _225
REMARK   88  A    between atoms: _228  and  _230
REMARK   89  A    between atoms: _230  and  _231
REMARK   90  A    between atoms: _230  and  _233
REMARK   91  A    between atoms: _233  and  _234
REMARK   92  A    between atoms: _234  and  _235
REMARK   93  A    between atoms: _240  and  _242
REMARK   94  A    between atoms: _242  and  _243
REMARK   95  A    between atoms: _242  and  _245
REMARK   96  A    between atoms: _245  and  _246
REMARK   97  A    between atoms: _249  and  _251
REMARK   98  A    between atoms: _251  and  _252
REMARK   99  A    between atoms: _251  and  _254
REMARK  100  A    between atoms: _254  and  _255
REMARK  101  A    between atoms: _258  and  _260
REMARK  102  A    between atoms: _260  and  _261
REMARK  103  A    between atoms: _260  and  _263
REMARK  104  A    between atoms: _263  and  _264
REMARK  105  A    between atoms: _267  and  _269
REMARK  106  A    between atoms: _269  and  _270
REMARK  107  A    between atoms: _269  and  _272
REMARK  108  A    between atoms: _272  and  _273
REMARK  109  A    between atoms: _275  and  _277
REMARK  110  A    between atoms: _277  and  _278
REMARK  111  A    between atoms: _277  and  _280
REMARK  112  A    between atoms: _283  and  _285
REMARK  113  A    between atoms: _285  and  _286
REMARK  114  A    between atoms: _285  and  _288
REMARK  115  A    between atoms: _288  and  _289
REMARK  116  A    between atoms: _291  and  _293
REMARK  117  A    between atoms: _293  and  _294
REMARK  118  A    between atoms: _293  and  _296
REMARK  119  A    between atoms: _296  and  _297
REMARK  120  A    between atoms: _297  and  _298
REMARK  121  A    between atoms: _298  and  _299
REMARK  122  A    between atoms: _299  and  _300
REMARK  123  A    between atoms: _305  and  _306
REMARK  124  A    between atoms: _311  and  _313
REMARK  125  A    between atoms: _313  and  _314
REMARK  126  A    between atoms: _313  and  _316
REMARK  127  A    between atoms: _316  and  _317
REMARK  128  A    between atoms: _322  and  _324
REMARK  129  A    between atoms: _324  and  _325
REMARK  130  A    between atoms: _324  and  _327
REMARK  131  A    between atoms: _327  and  _328
REMARK  132  A    between atoms: _331  and  _333
REMARK  133  A    between atoms: _333  and  _334
REMARK  134  A    between atoms: _333  and  _336
REMARK  135  A    between atoms: _339  and  _341
REMARK  136  A    between atoms: _341  and  _342
REMARK  137  A    between atoms: _344  and  _346
REMARK  138  A    between atoms: _346  and  _347
REMARK  139  A    between atoms: _346  and  _349
REMARK  140  A    between atoms: _349  and  _350
REMARK  141  A    between atoms: _350  and  _351
REMARK  142  A    between atoms: _351  and  _352
REMARK  143  A    between atoms: _352  and  _353
REMARK  144  A    between atoms: _357  and  _359
REMARK  145  A    between atoms: _359  and  _360
REMARK  146  A    between atoms: _359  and  _362
REMARK  147  A    between atoms: _362  and  _363
REMARK  148  A    between atoms: _366  and  _368
REMARK  149  A    between atoms: _368  and  _369
REMARK  150  A    between atoms: _372  and  _374
REMARK  151  A    between atoms: _374  and  _375
REMARK  152  A    between atoms: _377  and  _379
REMARK  153  A    between atoms: _379  and  _380
REMARK  154  A    between atoms: _379  and  _382
REMARK  155  A    between atoms: _382  and  _383
REMARK  156  A    between atoms: _386  and  _388
REMARK  157  A    between atoms: _388  and  _389
REMARK  158  A    between atoms: _388  and  _391
REMARK  159  A    between atoms: _391  and  _392
REMARK  160  A    between atoms: _395  and  _397
REMARK  161  A    between atoms: _397  and  _398
REMARK  162  A    between atoms: _401  and  _403
REMARK  163  A    between atoms: _403  and  _404
REMARK  164  A    between atoms: _403  and  _406
REMARK  165  A    between atoms: _406  and  _407
REMARK  166  A    between atoms: _407  and  _408
REMARK  167  A    between atoms: _411  and  _413
REMARK  168  A    between atoms: _413  and  _414
REMARK  169  A    between atoms: _413  and  _416
REMARK  170  A    between atoms: _419  and  _421
REMARK  171  A    between atoms: _421  and  _422
REMARK  172  A    between atoms: _421  and  _424
REMARK  173  A    between atoms: _424  and  _425
REMARK  174  A    between atoms: _428  and  _430
REMARK  175  A    between atoms: _430  and  _431
REMARK  176  A    between atoms: _433  and  _435
REMARK  177  A    between atoms: _435  and  _436
REMARK  178  A    between atoms: _435  and  _438
REMARK  179  A    between atoms: _441  and  _443
REMARK  180  A    between atoms: _443  and  _444
REMARK  181  A    between atoms: _446  and  _448
REMARK  182  A    between atoms: _448  and  _449
REMARK  183  A    between atoms: _448  and  _451
REMARK  184  A    between atoms: _451  and  _452
REMARK  185  A    between atoms: _455  and  _457
REMARK  186  A    between atoms: _457  and  _458
REMARK  187  A    between atoms: _457  and  _460
REMARK  188  A    between atoms: _460  and  _461
REMARK  189  A    between atoms: _466  and  _468
REMARK  190  A    between atoms: _468  and  _469
REMARK  191  A    between atoms: _468  and  _471
REMARK  192  A    between atoms: _474  and  _476
REMARK  193  A    between atoms: _476  and  _477
REMARK  194  A    between atoms: _476  and  _479
REMARK  195  A    between atoms: _479  and  _480
REMARK  196  A    between atoms: _480  and  _481
REMARK  197  A    between atoms: _486  and  _488
REMARK  198  A    between atoms: _488  and  _489
REMARK  199  A    between atoms: _493  and  _494
REMARK  200  A    between atoms: _499  and  _501
REMARK  201  A    between atoms: _501  and  _502
REMARK  202  A    between atoms: _501  and  _504
REMARK  203  A    between atoms: _504  and  _505
REMARK  204  A    between atoms: _505  and  _506
REMARK  205  A    between atoms: _509  and  _511
REMARK  206  A    between atoms: _511  and  _512
REMARK  207  A    between atoms: _511  and  _514
REMARK  208  A    between atoms: _517  and  _519
REMARK  209  A    between atoms: _519  and  _520
REMARK  210  A    between atoms: _519  and  _522
REMARK  211  A    between atoms: _522  and  _523
REMARK  212  A    between atoms: _527  and  _528
REMARK  213  A    between atoms: _533  and  _535
REMARK  214  A    between atoms: _535  and  _536
REMARK  215  A    between atoms: _535  and  _538
REMARK  216  A    between atoms: _538  and  _539
REMARK  217  A    between atoms: _542  and  _544
REMARK  218  A    between atoms: _544  and  _545
REMARK  219  A    between atoms: _548  and  _550
REMARK  220  A    between atoms: _550  and  _551
REMARK  221  A    between atoms: _550  and  _553
REMARK  222  A    between atoms: _553  and  _554
REMARK  223  A    between atoms: _557  and  _559
REMARK  224  A    between atoms: _559  and  _560
REMARK  225  A    between atoms: _559  and  _562
REMARK  226  A    between atoms: _562  and  _563
REMARK  227  A    between atoms: _565  and  _567
REMARK  228  A    between atoms: _567  and  _568
REMARK  229  A    between atoms: _570  and  _572
REMARK  230  A    between atoms: _572  and  _573
REMARK  231  A    between atoms: _572  and  _575
REMARK  232  A    between atoms: _575  and  _576
REMARK  233  A    between atoms: _579  and  _581
REMARK  234  A    between atoms: _581  and  _582
REMARK  235  A    between atoms: _581  and  _584
REMARK                            x       y       z     vdW  Elec       q    Type
REMARK                         _______ _______ _______ _____ _____    ______ ____
ROOT
ATOM      1  O   HOH     1      -0.300   0.736  11.736  0.00  0.00    +0.000 OA
ENDROOT
TORSDOF 0
REMARK  Name = ../refined-set-2016/4xtw/4xtw_pocket.pdb
REMARK  235 active torsions:
REMARK  status: ('A' for Active; 'I' for Inactive)
REMARK    1  A    between atoms: _1  and  _3
REMARK    2  A    between atoms: _3  and  _4
REMARK    3  A    between atoms: _3  and  _6
REMARK    4  A    between atoms: _6  and  _7
REMARK    5  A    between atoms: _10  and  _12
REMARK    6  A    between atoms: _12  and  _13
REMARK    7  A    between atoms: _15  and  _17
REMARK    8  A    between atoms: _17  and  _18
REMARK    9  A    between atoms: _17  and  _20
REMARK   10  A    between atoms: _20  and  _21
REMARK   11  A    between atoms: _23  and  _25
REMARK   12  A    between atoms: _25  and  _26
REMARK   13  A    between atoms: _25  and  _28
REMARK   14  A    between atoms: _28  and  _29
REMARK   15  A    between atoms: _32  and  _34
REMARK   16  A    between atoms: _34  and  _35
REMARK   17  A    between atoms: _34  and  _37
REMARK   18  A    between atoms: _37  and  _38
REMARK   19  A    between atoms: _43  and  _45
REMARK   20  A    between atoms: _45  and  _46
REMARK   21  A    between atoms: _49  and  _51
REMARK   22  A    between atoms: _51  and  _52
REMARK   23  A    between atoms: _51  and  _54
REMARK   24  A    between atoms: _54  and  _55
REMARK   25  A    between atoms: _58  and  _60
REMARK   26  A    between atoms: _60  and  _61
REMARK   27  A    between atoms: _60  and  _63
REMARK   28  A    between atoms: _63  and  _64
REMARK   29  A    between atoms: _67  and  _69
REMARK   30  A    between atoms: _69  and  _70
REMARK   31  A    between atoms: _69  and  _72
REMARK   32  A    between atoms: _72  and  _73
REMARK   33  A    between atoms: _76  and  _78
REMARK   34  A    between atoms: _78  and  _79
REMARK   35  A    between atoms: _82  and  _84
REMARK   36  A    between atoms: _84  and  _85
REMARK   37  A    between atoms: _84  and  _87
REMARK   38  A    between atoms: _87  and  _88
REMARK   39  A    between atoms: _88  and  _89
REMARK   40  A    between atoms: _94  and  _96
REMARK   41  A    between atoms: _96  and  _97
REMARK   42  A    between atoms: _96  and  _99
REMARK   43  A    between atoms: _99  and  _100
REMARK   44  A    between atoms: _103  and  _105
REMARK   45  A    between atoms: _105  and  _106
REMARK   46  A    between atoms: _109  and  _111
REMARK   47  A    between atoms: _111  and  _112
REMARK   48  A    between atoms: _114  and  _116
REMARK   49  A    between atoms: _116  and  _117
REMARK   50  A    between atoms: _116  and  _119
REMARK   51  A    between atoms: _119  and  _120
REMARK   52  A    between atoms: _120  and  _121
REMARK   53  A    between atoms: _121  and  _122
REMARK   54  A    between atoms: _131  and  _133
REMARK   55  A    between atoms: _133  and  _134
REMARK   56  A    between atoms: _136  and  _138
REMARK   57  A    between atoms: _138  and  _139
REMARK   58  A    between atoms: _138  and  _141
REMARK   59  A    between atoms: _141  and  _142
REMARK   60  A    between atoms: _142  and  _143
REMARK   61  A    between atoms: _143  and  _144
REMARK   62  A    between atoms: _153  and  _155
REMARK   63  A    between atoms: _155  and  _156
REMARK   64  A    between atoms: _155  and  _158
REMARK   65  A    between atoms: _158  and  _159
REMARK   66  A    between atoms: _164  and  _166
REMARK   67  A    between atoms: _166  and  _167
REMARK   68  A    between atoms: _169  and  _171
REMARK   69  A    between atoms: _171  and  _172
REMARK   70  A    between atoms: _171  and  _174
REMARK   71  A    between atoms: _174  and  _175
REMARK   72  A    between atoms: _175  and  _176
REMARK   73  A    between atoms: _176  and  _177
REMARK   74  A    between atoms: _186  and  _188
REMARK   75  A    between atoms: _188  and  _189
REMARK   76  A    between atoms: _191  and  _193
REMARK   77  A    between atoms: _193  and  _194
REMARK   78  A    between atoms: _193  and  _196
REMARK   79  A    between atoms: _196  and  _197
REMARK   80  A    between atoms: _207  and  _209
REMARK   81  A    between atoms: _209  and  _210
REMARK   82  A    between atoms: _213  and  _215
REMARK   83  A    between atoms: _215  and  _216
REMARK   84  A    between atoms: _219  and  _221
REMARK   85  A    between atoms: _221  and  _222
REMARK   86  A    between atoms: _221  and  _224
REMARK   87  A    between atoms: _224  and  _225
REMARK   88  A    between atoms: _228  and  _230
REMARK   89  A    between atoms: _230  and  _231
REMARK   90  A    between atoms: _230  and  _233
REMARK   91  A    between atoms: _233  and  _234
REMARK   92  A    between atoms: _234  and  _235
REMARK   93  A    between atoms: _240  and  _242
REMARK   94  A    between atoms: _242  and  _243
REMARK   95  A    between atoms: _242  and  _245
REMARK   96  A    between atoms: _245  and  _246
REMARK   97  A    between atoms: _249  and  _251
REMARK   98  A    between atoms: _251  and  _252
REMARK   99  A    between atoms: _251  and  _254
REMARK  100  A    between atoms: _254  and  _255
REMARK  101  A    between atoms: _258  and  _260
REMARK  102  A    between atoms: _260  and  _261
REMARK  103  A    between atoms: _260  and  _263
REMARK  104  A    between atoms: _263  and  _264
REMARK  105  A    between atoms: _267  and  _269
REMARK  106  A    between atoms: _269  and  _270
REMARK  107  A    between atoms: _269  and  _272
REMARK  108  A    between atoms: _272  and  _273
REMARK  109  A    between atoms: _275  and  _277
REMARK  110  A    between atoms: _277  and  _278
REMARK  111  A    between atoms: _277  and  _280
REMARK  112  A    between atoms: _283  and  _285
REMARK  113  A    between atoms: _285  and  _286
REMARK  114  A    between atoms: _285  and  _288
REMARK  115  A    between atoms: _288  and  _289
REMARK  116  A    between atoms: _291  and  _293
REMARK  117  A    between atoms: _293  and  _294
REMARK  118  A    between atoms: _293  and  _296
REMARK  119  A    between atoms: _296  and  _297
REMARK  120  A    between atoms: _297  and  _298
REMARK  121  A    between atoms: _298  and  _299
REMARK  122  A    between atoms: _299  and  _300
REMARK  123  A    between atoms: _305  and  _306
REMARK  124  A    between atoms: _311  and  _313
REMARK  125  A    between atoms: _313  and  _314
REMARK  126  A    between atoms: _313  and  _316
REMARK  127  A    between atoms: _316  and  _317
REMARK  128  A    between atoms: _322  and  _324
REMARK  129  A    between atoms: _324  and  _325
REMARK  130  A    between atoms: _324  and  _327
REMARK  131  A    between atoms: _327  and  _328
REMARK  132  A    between atoms: _331  and  _333
REMARK  133  A    between atoms: _333  and  _334
REMARK  134  A    between atoms: _333  and  _336
REMARK  135  A    between atoms: _339  and  _341
REMARK  136  A    between atoms: _341  and  _342
REMARK  137  A    between atoms: _344  and  _346
REMARK  138  A    between atoms: _346  and  _347
REMARK  139  A    between atoms: _346  and  _349
REMARK  140  A    between atoms: _349  and  _350
REMARK  141  A    between atoms: _350  and  _351
REMARK  142  A    between atoms: _351  and  _352
REMARK  143  A    between atoms: _352  and  _353
REMARK  144  A    between atoms: _357  and  _359
REMARK  145  A    between atoms: _359  and  _360
REMARK  146  A    between atoms: _359  and  _362
REMARK  147  A    between atoms: _362  and  _363
REMARK  148  A    between atoms: _366  and  _368
REMARK  149  A    between atoms: _368  and  _369
REMARK  150  A    between atoms: _372  and  _374
REMARK  151  A    between atoms: _374  and  _375
REMARK  152  A    between atoms: _377  and  _379
REMARK  153  A    between atoms: _379  and  _380
REMARK  154  A    between atoms: _379  and  _382
REMARK  155  A    between atoms: _382  and  _383
REMARK  156  A    between atoms: _386  and  _388
REMARK  157  A    between atoms: _388  and  _389
REMARK  158  A    between atoms: _388  and  _391
REMARK  159  A    between atoms: _391  and  _392
REMARK  160  A    between atoms: _395  and  _397
REMARK  161  A    between atoms: _397  and  _398
REMARK  162  A    between atoms: _401  and  _403
REMARK  163  A    between atoms: _403  and  _404
REMARK  164  A    between atoms: _403  and  _406
REMARK  165  A    between atoms: _406  and  _407
REMARK  166  A    between atoms: _407  and  _408
REMARK  167  A    between atoms: _411  and  _413
REMARK  168  A    between atoms: _413  and  _414
REMARK  169  A    between atoms: _413  and  _416
REMARK  170  A    between atoms: _419  and  _421
REMARK  171  A    between atoms: _421  and  _422
REMARK  172  A    between atoms: _421  and  _424
REMARK  173  A    between atoms: _424  and  _425
REMARK  174  A    between atoms: _428  and  _430
REMARK  175  A    between atoms: _430  and  _431
REMARK  176  A    between atoms: _433  and  _435
REMARK  177  A    between atoms: _435  and  _436
REMARK  178  A    between atoms: _435  and  _438
REMARK  179  A    between atoms: _441  and  _443
REMARK  180  A    between atoms: _443  and  _444
REMARK  181  A    between atoms: _446  and  _448
REMARK  182  A    between atoms: _448  and  _449
REMARK  183  A    between atoms: _448  and  _451
REMARK  184  A    between atoms: _451  and  _452
REMARK  185  A    between atoms: _455  and  _457
REMARK  186  A    between atoms: _457  and  _458
REMARK  187  A    between atoms: _457  and  _460
REMARK  188  A    between atoms: _460  and  _461
REMARK  189  A    between atoms: _466  and  _468
REMARK  190  A    between atoms: _468  and  _469
REMARK  191  A    between atoms: _468  and  _471
REMARK  192  A    between atoms: _474  and  _476
REMARK  193  A    between atoms: _476  and  _477
REMARK  194  A    between atoms: _476  and  _479
REMARK  195  A    between atoms: _479  and  _480
REMARK  196  A    between atoms: _480  and  _481
REMARK  197  A    between atoms: _486  and  _488
REMARK  198  A    between atoms: _488  and  _489
REMARK  199  A    between atoms: _493  and  _494
REMARK  200  A    between atoms: _499  and  _501
REMARK  201  A    between atoms: _501  and  _502
REMARK  202  A    between atoms: _501  and  _504
REMARK  203  A    between atoms: _504  and  _505
REMARK  204  A    between atoms: _505  and  _506
REMARK  205  A    between atoms: _509  and  _511
REMARK  206  A    between atoms: _511  and  _512
REMARK  207  A    between atoms: _511  and  _514
REMARK  208  A    between atoms: _517  and  _519
REMARK  209  A    between atoms: _519  and  _520
REMARK  210  A    between atoms: _519  and  _522
REMARK  211  A    between atoms: _522  and  _523
REMARK  212  A    between atoms: _527  and  _528
REMARK  213  A    between atoms: _533  and  _535
REMARK  214  A    between atoms: _535  and  _536
REMARK  215  A    between atoms: _535  and  _538
REMARK  216  A    between atoms: _538  and  _539
REMARK  217  A    between atoms: _542  and  _544
REMARK  218  A    between atoms: _544  and  _545
REMARK  219  A    between atoms: _548  and  _550
REMARK  220  A    between atoms: _550  and  _551
REMARK  221  A    between atoms: _550  and  _553
REMARK  222  A    between atoms: _553  and  _554
REMARK  223  A    between atoms: _557  and  _559
REMARK  224  A    between atoms: _559  and  _560
REMARK  225  A    between atoms: _559  and  _562
REMARK  226  A    between atoms: _562  and  _563
REMARK  227  A    between atoms: _565  and  _567
REMARK  228  A    between atoms: _567  and  _568
REMARK  229  A    between atoms: _570  and  _572
REMARK  230  A    between atoms: _572  and  _573
REMARK  231  A    between atoms: _572  and  _575
REMARK  232  A    between atoms: _575  and  _576
REMARK  233  A    between atoms: _579  and  _581
REMARK  234  A    between atoms: _581  and  _582
REMARK  235  A    between atoms: _581  and  _584
REMARK                            x       y       z     vdW  Elec       q    Type
REMARK                         _______ _______ _______ _____ _____    ______ ____
ROOT
ATOM      1  O   HOH     1      -4.003 -10.237   0.209  0.00  0.00    +0.000 OA
ENDROOT
TORSDOF 0
REMARK  Name = ../refined-set-2016/4xtw/4xtw_pocket.pdb
REMARK  235 active torsions:
REMARK  status: ('A' for Active; 'I' for Inactive)
REMARK    1  A    between atoms: _1  and  _3
REMARK    2  A    between atoms: _3  and  _4
REMARK    3  A    between atoms: _3  and  _6
REMARK    4  A    between atoms: _6  and  _7
REMARK    5  A    between atoms: _10  and  _12
REMARK    6  A    between atoms: _12  and  _13
REMARK    7  A    between atoms: _15  and  _17
REMARK    8  A    between atoms: _17  and  _18
REMARK    9  A    between atoms: _17  and  _20
REMARK   10  A    between atoms: _20  and  _21
REMARK   11  A    between atoms: _23  and  _25
REMARK   12  A    between atoms: _25  and  _26
REMARK   13  A    between atoms: _25  and  _28
REMARK   14  A    between atoms: _28  and  _29
REMARK   15  A    between atoms: _32  and  _34
REMARK   16  A    between atoms: _34  and  _35
REMARK   17  A    between atoms: _34  and  _37
REMARK   18  A    between atoms: _37  and  _38
REMARK   19  A    between atoms: _43  and  _45
REMARK   20  A    between atoms: _45  and  _46
REMARK   21  A    between atoms: _49  and  _51
REMARK   22  A    between atoms: _51  and  _52
REMARK   23  A    between atoms: _51  and  _54
REMARK   24  A    between atoms: _54  and  _55
REMARK   25  A    between atoms: _58  and  _60
REMARK   26  A    between atoms: _60  and  _61
REMARK   27  A    between atoms: _60  and  _63
REMARK   28  A    between atoms: _63  and  _64
REMARK   29  A    between atoms: _67  and  _69
REMARK   30  A    between atoms: _69  and  _70
REMARK   31  A    between atoms: _69  and  _72
REMARK   32  A    between atoms: _72  and  _73
REMARK   33  A    between atoms: _76  and  _78
REMARK   34  A    between atoms: _78  and  _79
REMARK   35  A    between atoms: _82  and  _84
REMARK   36  A    between atoms: _84  and  _85
REMARK   37  A    between atoms: _84  and  _87
REMARK   38  A    between atoms: _87  and  _88
REMARK   39  A    between atoms: _88  and  _89
REMARK   40  A    between atoms: _94  and  _96
REMARK   41  A    between atoms: _96  and  _97
REMARK   42  A    between atoms: _96  and  _99
REMARK   43  A    between atoms: _99  and  _100
REMARK   44  A    between atoms: _103  and  _105
REMARK   45  A    between atoms: _105  and  _106
REMARK   46  A    between atoms: _109  and  _111
REMARK   47  A    between atoms: _111  and  _112
REMARK   48  A    between atoms: _114  and  _116
REMARK   49  A    between atoms: _116  and  _117
REMARK   50  A    between atoms: _116  and  _119
REMARK   51  A    between atoms: _119  and  _120
REMARK   52  A    between atoms: _120  and  _121
REMARK   53  A    between atoms: _121  and  _122
REMARK   54  A    between atoms: _131  and  _133
REMARK   55  A    between atoms: _133  and  _134
REMARK   56  A    between atoms: _136  and  _138
REMARK   57  A    between atoms: _138  and  _139
REMARK   58  A    between atoms: _138  and  _141
REMARK   59  A    between atoms: _141  and  _142
REMARK   60  A    between atoms: _142  and  _143
REMARK   61  A    between atoms: _143  and  _144
REMARK   62  A    between atoms: _153  and  _155
REMARK   63  A    between atoms: _155  and  _156
REMARK   64  A    between atoms: _155  and  _158
REMARK   65  A    between atoms: _158  and  _159
REMARK   66  A    between atoms: _164  and  _166
REMARK   67  A    between atoms: _166  and  _167
REMARK   68  A    between atoms: _169  and  _171
REMARK   69  A    between atoms: _171  and  _172
REMARK   70  A    between atoms: _171  and  _174
REMARK   71  A    between atoms: _174  and  _175
REMARK   72  A    between atoms: _175  and  _176
REMARK   73  A    between atoms: _176  and  _177
REMARK   74  A    between atoms: _186  and  _188
REMARK   75  A    between atoms: _188  and  _189
REMARK   76  A    between atoms: _191  and  _193
REMARK   77  A    between atoms: _193  and  _194
REMARK   78  A    between atoms: _193  and  _196
REMARK   79  A    between atoms: _196  and  _197
REMARK   80  A    between atoms: _207  and  _209
REMARK   81  A    between atoms: _209  and  _210
REMARK   82  A    between atoms: _213  and  _215
REMARK   83  A    between atoms: _215  and  _216
REMARK   84  A    between atoms: _219  and  _221
REMARK   85  A    between atoms: _221  and  _222
REMARK   86  A    between atoms: _221  and  _224
REMARK   87  A    between atoms: _224  and  _225
REMARK   88  A    between atoms: _228  and  _230
REMARK   89  A    between atoms: _230  and  _231
REMARK   90  A    between atoms: _230  and  _233
REMARK   91  A    between atoms: _233  and  _234
REMARK   92  A    between atoms: _234  and  _235
REMARK   93  A    between atoms: _240  and  _242
REMARK   94  A    between atoms: _242  and  _243
REMARK   95  A    between atoms: _242  and  _245
REMARK   96  A    between atoms: _245  and  _246
REMARK   97  A    between atoms: _249  and  _251
REMARK   98  A    between atoms: _251  and  _252
REMARK   99  A    between atoms: _251  and  _254
REMARK  100  A    between atoms: _254  and  _255
REMARK  101  A    between atoms: _258  and  _260
REMARK  102  A    between atoms: _260  and  _261
REMARK  103  A    between atoms: _260  and  _263
REMARK  104  A    between atoms: _263  and  _264
REMARK  105  A    between atoms: _267  and  _269
REMARK  106  A    between atoms: _269  and  _270
REMARK  107  A    between atoms: _269  and  _272
REMARK  108  A    between atoms: _272  and  _273
REMARK  109  A    between atoms: _275  and  _277
REMARK  110  A    between atoms: _277  and  _278
REMARK  111  A    between atoms: _277  and  _280
REMARK  112  A    between atoms: _283  and  _285
REMARK  113  A    between atoms: _285  and  _286
REMARK  114  A    between atoms: _285  and  _288
REMARK  115  A    between atoms: _288  and  _289
REMARK  116  A    between atoms: _291  and  _293
REMARK  117  A    between atoms: _293  and  _294
REMARK  118  A    between atoms: _293  and  _296
REMARK  119  A    between atoms: _296  and  _297
REMARK  120  A    between atoms: _297  and  _298
REMARK  121  A    between atoms: _298  and  _299
REMARK  122  A    between atoms: _299  and  _300
REMARK  123  A    between atoms: _305  and  _306
REMARK  124  A    between atoms: _311  and  _313
REMARK  125  A    between atoms: _313  and  _314
REMARK  126  A    between atoms: _313  and  _316
REMARK  127  A    between atoms: _316  and  _317
REMARK  128  A    between atoms: _322  and  _324
REMARK  129  A    between atoms: _324  and  _325
REMARK  130  A    between atoms: _324  and  _327
REMARK  131  A    between atoms: _327  and  _328
REMARK  132  A    between atoms: _331  and  _333
REMARK  133  A    between atoms: _333  and  _334
REMARK  134  A    between atoms: _333  and  _336
REMARK  135  A    between atoms: _339  and  _341
REMARK  136  A    between atoms: _341  and  _342
REMARK  137  A    between atoms: _344  and  _346
REMARK  138  A    between atoms: _346  and  _347
REMARK  139  A    between atoms: _346  and  _349
REMARK  140  A    between atoms: _349  and  _350
REMARK  141  A    between atoms: _350  and  _351
REMARK  142  A    between atoms: _351  and  _352
REMARK  143  A    between atoms: _352  and  _353
REMARK  144  A    between atoms: _357  and  _359
REMARK  145  A    between atoms: _359  and  _360
REMARK  146  A    between atoms: _359  and  _362
REMARK  147  A    between atoms: _362  and  _363
REMARK  148  A    between atoms: _366  and  _368
REMARK  149  A    between atoms: _368  and  _369
REMARK  150  A    between atoms: _372  and  _374
REMARK  151  A    between atoms: _374  and  _375
REMARK  152  A    between atoms: _377  and  _379
REMARK  153  A    between atoms: _379  and  _380
REMARK  154  A    between atoms: _379  and  _382
REMARK  155  A    between atoms: _382  and  _383
REMARK  156  A    between atoms: _386  and  _388
REMARK  157  A    between atoms: _388  and  _389
REMARK  158  A    between atoms: _388  and  _391
REMARK  159  A    between atoms: _391  and  _392
REMARK  160  A    between atoms: _395  and  _397
REMARK  161  A    between atoms: _397  and  _398
REMARK  162  A    between atoms: _401  and  _403
REMARK  163  A    between atoms: _403  and  _404
REMARK  164  A    between atoms: _403  and  _406
REMARK  165  A    between atoms: _406  and  _407
REMARK  166  A    between atoms: _407  and  _408
REMARK  167  A    between atoms: _411  and  _413
REMARK  168  A    between atoms: _413  and  _414
REMARK  169  A    between atoms: _413  and  _416
REMARK  170  A    between atoms: _419  and  _421
REMARK  171  A    between atoms: _421  and  _422
REMARK  172  A    between atoms: _421  and  _424
REMARK  173  A    between atoms: _424  and  _425
REMARK  174  A    between atoms: _428  and  _430
REMARK  175  A    between atoms: _430  and  _431
REMARK  176  A    between atoms: _433  and  _435
REMARK  177  A    between atoms: _435  and  _436
REMARK  178  A    between atoms: _435  and  _438
REMARK  179  A    between atoms: _441  and  _443
REMARK  180  A    between atoms: _443  and  _444
REMARK  181  A    between atoms: _446  and  _448
REMARK  182  A    between atoms: _448  and  _449
REMARK  183  A    between atoms: _448  and  _451
REMARK  184  A    between atoms: _451  and  _452
REMARK  185  A    between atoms: _455  and  _457
REMARK  186  A    between atoms: _457  and  _458
REMARK  187  A    between atoms: _457  and  _460
REMARK  188  A    between atoms: _460  and  _461
REMARK  189  A    between atoms: _466  and  _468
REMARK  190  A    between atoms: _468  and  _469
REMARK  191  A    between atoms: _468  and  _471
REMARK  192  A    between atoms: _474  and  _476
REMARK  193  A    between atoms: _476  and  _477
REMARK  194  A    between atoms: _476  and  _479
REMARK  195  A    between atoms: _479  and  _480
REMARK  196  A    between atoms: _480  and  _481
REMARK  197  A    between atoms: _486  and  _488
REMARK  198  A    between atoms: _488  and  _489
REMARK  199  A    between atoms: _493  and  _494
REMARK  200  A    between atoms: _499  and  _501
REMARK  201  A    between atoms: _501  and  _502
REMARK  202  A    between atoms: _501  and  _504
REMARK  203  A    between atoms: _504  and  _505
REMARK  204  A    between atoms: _505  and  _506
REMARK  205  A    between atoms: _509  and  _511
REMARK  206  A    between atoms: _511  and  _512
REMARK  207  A    between atoms: _511  and  _514
REMARK  208  A    between atoms: _517  and  _519
REMARK  209  A    between atoms: _519  and  _520
REMARK  210  A    between atoms: _519  and  _522
REMARK  211  A    between atoms: _522  and  _523
REMARK  212  A    between atoms: _527  and  _528
REMARK  213  A    between atoms: _533  and  _535
REMARK  214  A    between atoms: _535  and  _536
REMARK  215  A    between atoms: _535  and  _538
REMARK  216  A    between atoms: _538  and  _539
REMARK  217  A    between atoms: _542  and  _544
REMARK  218  A    between atoms: _544  and  _545
REMARK  219  A    between atoms: _548  and  _550
REMARK  220  A    between atoms: _550  and  _551
REMARK  221  A    between atoms: _550  and  _553
REMARK  222  A    between atoms: _553  and  _554
REMARK  223  A    between atoms: _557  and  _559
REMARK  224  A    between atoms: _559  and  _560
REMARK  225  A    between atoms: _559  and  _562
REMARK  226  A    between atoms: _562  and  _563
REMARK  227  A    between atoms: _565  and  _567
REMARK  228  A    between atoms: _567  and  _568
REMARK  229  A    between atoms: _570  and  _572
REMARK  230  A    between atoms: _572  and  _573
REMARK  231  A    between atoms: _572  and  _575
REMARK  232  A    between atoms: _575  and  _576
REMARK  233  A    between atoms: _579  and  _581
REMARK  234  A    between atoms: _581  and  _582
REMARK  235  A    between atoms: _581  and  _584
REMARK                            x       y       z     vdW  Elec       q    Type
REMARK                         _______ _______ _______ _____ _____    ______ ____
ROOT
ATOM      1  O   HOH     1       2.165  -1.736  16.652  0.00  0.00    +0.000 OA
ENDROOT
TORSDOF 0
REMARK  Name = ../refined-set-2016/4xtw/4xtw_pocket.pdb
REMARK  235 active torsions:
REMARK  status: ('A' for Active; 'I' for Inactive)
REMARK    1  A    between atoms: _1  and  _3
REMARK    2  A    between atoms: _3  and  _4
REMARK    3  A    between atoms: _3  and  _6
REMARK    4  A    between atoms: _6  and  _7
REMARK    5  A    between atoms: _10  and  _12
REMARK    6  A    between atoms: _12  and  _13
REMARK    7  A    between atoms: _15  and  _17
REMARK    8  A    between atoms: _17  and  _18
REMARK    9  A    between atoms: _17  and  _20
REMARK   10  A    between atoms: _20  and  _21
REMARK   11  A    between atoms: _23  and  _25
REMARK   12  A    between atoms: _25  and  _26
REMARK   13  A    between atoms: _25  and  _28
REMARK   14  A    between atoms: _28  and  _29
REMARK   15  A    between atoms: _32  and  _34
REMARK   16  A    between atoms: _34  and  _35
REMARK   17  A    between atoms: _34  and  _37
REMARK   18  A    between atoms: _37  and  _38
REMARK   19  A    between atoms: _43  and  _45
REMARK   20  A    between atoms: _45  and  _46
REMARK   21  A    between atoms: _49  and  _51
REMARK   22  A    between atoms: _51  and  _52
REMARK   23  A    between atoms: _51  and  _54
REMARK   24  A    between atoms: _54  and  _55
REMARK   25  A    between atoms: _58  and  _60
REMARK   26  A    between atoms: _60  and  _61
REMARK   27  A    between atoms: _60  and  _63
REMARK   28  A    between atoms: _63  and  _64
REMARK   29  A    between atoms: _67  and  _69
REMARK   30  A    between atoms: _69  and  _70
REMARK   31  A    between atoms: _69  and  _72
REMARK   32  A    between atoms: _72  and  _73
REMARK   33  A    between atoms: _76  and  _78
REMARK   34  A    between atoms: _78  and  _79
REMARK   35  A    between atoms: _82  and  _84
REMARK   36  A    between atoms: _84  and  _85
REMARK   37  A    between atoms: _84  and  _87
REMARK   38  A    between atoms: _87  and  _88
REMARK   39  A    between atoms: _88  and  _89
REMARK   40  A    between atoms: _94  and  _96
REMARK   41  A    between atoms: _96  and  _97
REMARK   42  A    between atoms: _96  and  _99
REMARK   43  A    between atoms: _99  and  _100
REMARK   44  A    between atoms: _103  and  _105
REMARK   45  A    between atoms: _105  and  _106
REMARK   46  A    between atoms: _109  and  _111
REMARK   47  A    between atoms: _111  and  _112
REMARK   48  A    between atoms: _114  and  _116
REMARK   49  A    between atoms: _116  and  _117
REMARK   50  A    between atoms: _116  and  _119
REMARK   51  A    between atoms: _119  and  _120
REMARK   52  A    between atoms: _120  and  _121
REMARK   53  A    between atoms: _121  and  _122
REMARK   54  A    between atoms: _131  and  _133
REMARK   55  A    between atoms: _133  and  _134
REMARK   56  A    between atoms: _136  and  _138
REMARK   57  A    between atoms: _138  and  _139
REMARK   58  A    between atoms: _138  and  _141
REMARK   59  A    between atoms: _141  and  _142
REMARK   60  A    between atoms: _142  and  _143
REMARK   61  A    between atoms: _143  and  _144
REMARK   62  A    between atoms: _153  and  _155
REMARK   63  A    between atoms: _155  and  _156
REMARK   64  A    between atoms: _155  and  _158
REMARK   65  A    between atoms: _158  and  _159
REMARK   66  A    between atoms: _164  and  _166
REMARK   67  A    between atoms: _166  and  _167
REMARK   68  A    between atoms: _169  and  _171
REMARK   69  A    between atoms: _171  and  _172
REMARK   70  A    between atoms: _171  and  _174
REMARK   71  A    between atoms: _174  and  _175
REMARK   72  A    between atoms: _175  and  _176
REMARK   73  A    between atoms: _176  and  _177
REMARK   74  A    between atoms: _186  and  _188
REMARK   75  A    between atoms: _188  and  _189
REMARK   76  A    between atoms: _191  and  _193
REMARK   77  A    between atoms: _193  and  _194
REMARK   78  A    between atoms: _193  and  _196
REMARK   79  A    between atoms: _196  and  _197
REMARK   80  A    between atoms: _207  and  _209
REMARK   81  A    between atoms: _209  and  _210
REMARK   82  A    between atoms: _213  and  _215
REMARK   83  A    between atoms: _215  and  _216
REMARK   84  A    between atoms: _219  and  _221
REMARK   85  A    between atoms: _221  and  _222
REMARK   86  A    between atoms: _221  and  _224
REMARK   87  A    between atoms: _224  and  _225
REMARK   88  A    between atoms: _228  and  _230
REMARK   89  A    between atoms: _230  and  _231
REMARK   90  A    between atoms: _230  and  _233
REMARK   91  A    between atoms: _233  and  _234
REMARK   92  A    between atoms: _234  and  _235
REMARK   93  A    between atoms: _240  and  _242
REMARK   94  A    between atoms: _242  and  _243
REMARK   95  A    between atoms: _242  and  _245
REMARK   96  A    between atoms: _245  and  _246
REMARK   97  A    between atoms: _249  and  _251
REMARK   98  A    between atoms: _251  and  _252
REMARK   99  A    between atoms: _251  and  _254
REMARK  100  A    between atoms: _254  and  _255
REMARK  101  A    between atoms: _258  and  _260
REMARK  102  A    between atoms: _260  and  _261
REMARK  103  A    between atoms: _260  and  _263
REMARK  104  A    between atoms: _263  and  _264
REMARK  105  A    between atoms: _267  and  _269
REMARK  106  A    between atoms: _269  and  _270
REMARK  107  A    between atoms: _269  and  _272
REMARK  108  A    between atoms: _272  and  _273
REMARK  109  A    between atoms: _275  and  _277
REMARK  110  A    between atoms: _277  and  _278
REMARK  111  A    between atoms: _277  and  _280
REMARK  112  A    between atoms: _283  and  _285
REMARK  113  A    between atoms: _285  and  _286
REMARK  114  A    between atoms: _285  and  _288
REMARK  115  A    between atoms: _288  and  _289
REMARK  116  A    between atoms: _291  and  _293
REMARK  117  A    between atoms: _293  and  _294
REMARK  118  A    between atoms: _293  and  _296
REMARK  119  A    between atoms: _296  and  _297
REMARK  120  A    between atoms: _297  and  _298
REMARK  121  A    between atoms: _298  and  _299
REMARK  122  A    between atoms: _299  and  _300
REMARK  123  A    between atoms: _305  and  _306
REMARK  124  A    between atoms: _311  and  _313
REMARK  125  A    between atoms: _313  and  _314
REMARK  126  A    between atoms: _313  and  _316
REMARK  127  A    between atoms: _316  and  _317
REMARK  128  A    between atoms: _322  and  _324
REMARK  129  A    between atoms: _324  and  _325
REMARK  130  A    between atoms: _324  and  _327
REMARK  131  A    between atoms: _327  and  _328
REMARK  132  A    between atoms: _331  and  _333
REMARK  133  A    between atoms: _333  and  _334
REMARK  134  A    between atoms: _333  and  _336
REMARK  135  A    between atoms: _339  and  _341
REMARK  136  A    between atoms: _341  and  _342
REMARK  137  A    between atoms: _344  and  _346
REMARK  138  A    between atoms: _346  and  _347
REMARK  139  A    between atoms: _346  and  _349
REMARK  140  A    between atoms: _349  and  _350
REMARK  141  A    between atoms: _350  and  _351
REMARK  142  A    between atoms: _351  and  _352
REMARK  143  A    between atoms: _352  and  _353
REMARK  144  A    between atoms: _357  and  _359
REMARK  145  A    between atoms: _359  and  _360
REMARK  146  A    between atoms: _359  and  _362
REMARK  147  A    between atoms: _362  and  _363
REMARK  148  A    between atoms: _366  and  _368
REMARK  149  A    between atoms: _368  and  _369
REMARK  150  A    between atoms: _372  and  _374
REMARK  151  A    between atoms: _374  and  _375
REMARK  152  A    between atoms: _377  and  _379
REMARK  153  A    between atoms: _379  and  _380
REMARK  154  A    between atoms: _379  and  _382
REMARK  155  A    between atoms: _382  and  _383
REMARK  156  A    between atoms: _386  and  _388
REMARK  157  A    between atoms: _388  and  _389
REMARK  158  A    between atoms: _388  and  _391
REMARK  159  A    between atoms: _391  and  _392
REMARK  160  A    between atoms: _395  and  _397
REMARK  161  A    between atoms: _397  and  _398
REMARK  162  A    between atoms: _401  and  _403
REMARK  163  A    between atoms: _403  and  _404
REMARK  164  A    between atoms: _403  and  _406
REMARK  165  A    between atoms: _406  and  _407
REMARK  166  A    between atoms: _407  and  _408
REMARK  167  A    between atoms: _411  and  _413
REMARK  168  A    between atoms: _413  and  _414
REMARK  169  A    between atoms: _413  and  _416
REMARK  170  A    between atoms: _419  and  _421
REMARK  171  A    between atoms: _421  and  _422
REMARK  172  A    between atoms: _421  and  _424
REMARK  173  A    between atoms: _424  and  _425
REMARK  174  A    between atoms: _428  and  _430
REMARK  175  A    between atoms: _430  and  _431
REMARK  176  A    between atoms: _433  and  _435
REMARK  177  A    between atoms: _435  and  _436
REMARK  178  A    between atoms: _435  and  _438
REMARK  179  A    between atoms: _441  and  _443
REMARK  180  A    between atoms: _443  and  _444
REMARK  181  A    between atoms: _446  and  _448
REMARK  182  A    between atoms: _448  and  _449
REMARK  183  A    between atoms: _448  and  _451
REMARK  184  A    between atoms: _451  and  _452
REMARK  185  A    between atoms: _455  and  _457
REMARK  186  A    between atoms: _457  and  _458
REMARK  187  A    between atoms: _457  and  _460
REMARK  188  A    between atoms: _460  and  _461
REMARK  189  A    between atoms: _466  and  _468
REMARK  190  A    between atoms: _468  and  _469
REMARK  191  A    between atoms: _468  and  _471
REMARK  192  A    between atoms: _474  and  _476
REMARK  193  A    between atoms: _476  and  _477
REMARK  194  A    between atoms: _476  and  _479
REMARK  195  A    between atoms: _479  and  _480
REMARK  196  A    between atoms: _480  and  _481
REMARK  197  A    between atoms: _486  and  _488
REMARK  198  A    between atoms: _488  and  _489
REMARK  199  A    between atoms: _493  and  _494
REMARK  200  A    between atoms: _499  and  _501
REMARK  201  A    between atoms: _501  and  _502
REMARK  202  A    between atoms: _501  and  _504
REMARK  203  A    between atoms: _504  and  _505
REMARK  204  A    between atoms: _505  and  _506
REMARK  205  A    between atoms: _509  and  _511
REMARK  206  A    between atoms: _511  and  _512
REMARK  207  A    between atoms: _511  and  _514
REMARK  208  A    between atoms: _517  and  _519
REMARK  209  A    between atoms: _519  and  _520
REMARK  210  A    between atoms: _519  and  _522
REMARK  211  A    between atoms: _522  and  _523
REMARK  212  A    between atoms: _527  and  _528
REMARK  213  A    between atoms: _533  and  _535
REMARK  214  A    between atoms: _535  and  _536
REMARK  215  A    between atoms: _535  and  _538
REMARK  216  A    between atoms: _538  and  _539
REMARK  217  A    between atoms: _542  and  _544
REMARK  218  A    between atoms: _544  and  _545
REMARK  219  A    between atoms: _548  and  _550
REMARK  220  A    between atoms: _550  and  _551
REMARK  221  A    between atoms: _550  and  _553
REMARK  222  A    between atoms: _553  and  _554
REMARK  223  A    between atoms: _557  and  _559
REMARK  224  A    between atoms: _559  and  _560
REMARK  225  A    between atoms: _559  and  _562
REMARK  226  A    between atoms: _562  and  _563
REMARK  227  A    between atoms: _565  and  _567
REMARK  228  A    between atoms: _567  and  _568
REMARK  229  A    between atoms: _570  and  _572
REMARK  230  A    between atoms: _572  and  _573
REMARK  231  A    between atoms: _572  and  _575
REMARK  232  A    between atoms: _575  and  _576
REMARK  233  A    between atoms: _579  and  _581
REMARK  234  A    between atoms: _581  and  _582
REMARK  235  A    between atoms: _581  and  _584
REMARK                            x       y       z     vdW  Elec       q    Type
REMARK                         _______ _______ _______ _____ _____    ______ ____
ROOT
ATOM      1  O   HOH     1      -4.919 -12.614   5.766  0.00  0.00    +0.000 OA
ENDROOT
TORSDOF 0
REMARK  Name = ../refined-set-2016/4xtw/4xtw_pocket.pdb
REMARK  235 active torsions:
REMARK  status: ('A' for Active; 'I' for Inactive)
REMARK    1  A    between atoms: _1  and  _3
REMARK    2  A    between atoms: _3  and  _4
REMARK    3  A    between atoms: _3  and  _6
REMARK    4  A    between atoms: _6  and  _7
REMARK    5  A    between atoms: _10  and  _12
REMARK    6  A    between atoms: _12  and  _13
REMARK    7  A    between atoms: _15  and  _17
REMARK    8  A    between atoms: _17  and  _18
REMARK    9  A    between atoms: _17  and  _20
REMARK   10  A    between atoms: _20  and  _21
REMARK   11  A    between atoms: _23  and  _25
REMARK   12  A    between atoms: _25  and  _26
REMARK   13  A    between atoms: _25  and  _28
REMARK   14  A    between atoms: _28  and  _29
REMARK   15  A    between atoms: _32  and  _34
REMARK   16  A    between atoms: _34  and  _35
REMARK   17  A    between atoms: _34  and  _37
REMARK   18  A    between atoms: _37  and  _38
REMARK   19  A    between atoms: _43  and  _45
REMARK   20  A    between atoms: _45  and  _46
REMARK   21  A    between atoms: _49  and  _51
REMARK   22  A    between atoms: _51  and  _52
REMARK   23  A    between atoms: _51  and  _54
REMARK   24  A    between atoms: _54  and  _55
REMARK   25  A    between atoms: _58  and  _60
REMARK   26  A    between atoms: _60  and  _61
REMARK   27  A    between atoms: _60  and  _63
REMARK   28  A    between atoms: _63  and  _64
REMARK   29  A    between atoms: _67  and  _69
REMARK   30  A    between atoms: _69  and  _70
REMARK   31  A    between atoms: _69  and  _72
REMARK   32  A    between atoms: _72  and  _73
REMARK   33  A    between atoms: _76  and  _78
REMARK   34  A    between atoms: _78  and  _79
REMARK   35  A    between atoms: _82  and  _84
REMARK   36  A    between atoms: _84  and  _85
REMARK   37  A    between atoms: _84  and  _87
REMARK   38  A    between atoms: _87  and  _88
REMARK   39  A    between atoms: _88  and  _89
REMARK   40  A    between atoms: _94  and  _96
REMARK   41  A    between atoms: _96  and  _97
REMARK   42  A    between atoms: _96  and  _99
REMARK   43  A    between atoms: _99  and  _100
REMARK   44  A    between atoms: _103  and  _105
REMARK   45  A    between atoms: _105  and  _106
REMARK   46  A    between atoms: _109  and  _111
REMARK   47  A    between atoms: _111  and  _112
REMARK   48  A    between atoms: _114  and  _116
REMARK   49  A    between atoms: _116  and  _117
REMARK   50  A    between atoms: _116  and  _119
REMARK   51  A    between atoms: _119  and  _120
REMARK   52  A    between atoms: _120  and  _121
REMARK   53  A    between atoms: _121  and  _122
REMARK   54  A    between atoms: _131  and  _133
REMARK   55  A    between atoms: _133  and  _134
REMARK   56  A    between atoms: _136  and  _138
REMARK   57  A    between atoms: _138  and  _139
REMARK   58  A    between atoms: _138  and  _141
REMARK   59  A    between atoms: _141  and  _142
REMARK   60  A    between atoms: _142  and  _143
REMARK   61  A    between atoms: _143  and  _144
REMARK   62  A    between atoms: _153  and  _155
REMARK   63  A    between atoms: _155  and  _156
REMARK   64  A    between atoms: _155  and  _158
REMARK   65  A    between atoms: _158  and  _159
REMARK   66  A    between atoms: _164  and  _166
REMARK   67  A    between atoms: _166  and  _167
REMARK   68  A    between atoms: _169  and  _171
REMARK   69  A    between atoms: _171  and  _172
REMARK   70  A    between atoms: _171  and  _174
REMARK   71  A    between atoms: _174  and  _175
REMARK   72  A    between atoms: _175  and  _176
REMARK   73  A    between atoms: _176  and  _177
REMARK   74  A    between atoms: _186  and  _188
REMARK   75  A    between atoms: _188  and  _189
REMARK   76  A    between atoms: _191  and  _193
REMARK   77  A    between atoms: _193  and  _194
REMARK   78  A    between atoms: _193  and  _196
REMARK   79  A    between atoms: _196  and  _197
REMARK   80  A    between atoms: _207  and  _209
REMARK   81  A    between atoms: _209  and  _210
REMARK   82  A    between atoms: _213  and  _215
REMARK   83  A    between atoms: _215  and  _216
REMARK   84  A    between atoms: _219  and  _221
REMARK   85  A    between atoms: _221  and  _222
REMARK   86  A    between atoms: _221  and  _224
REMARK   87  A    between atoms: _224  and  _225
REMARK   88  A    between atoms: _228  and  _230
REMARK   89  A    between atoms: _230  and  _231
REMARK   90  A    between atoms: _230  and  _233
REMARK   91  A    between atoms: _233  and  _234
REMARK   92  A    between atoms: _234  and  _235
REMARK   93  A    between atoms: _240  and  _242
REMARK   94  A    between atoms: _242  and  _243
REMARK   95  A    between atoms: _242  and  _245
REMARK   96  A    between atoms: _245  and  _246
REMARK   97  A    between atoms: _249  and  _251
REMARK   98  A    between atoms: _251  and  _252
REMARK   99  A    between atoms: _251  and  _254
REMARK  100  A    between atoms: _254  and  _255
REMARK  101  A    between atoms: _258  and  _260
REMARK  102  A    between atoms: _260  and  _261
REMARK  103  A    between atoms: _260  and  _263
REMARK  104  A    between atoms: _263  and  _264
REMARK  105  A    between atoms: _267  and  _269
REMARK  106  A    between atoms: _269  and  _270
REMARK  107  A    between atoms: _269  and  _272
REMARK  108  A    between atoms: _272  and  _273
REMARK  109  A    between atoms: _275  and  _277
REMARK  110  A    between atoms: _277  and  _278
REMARK  111  A    between atoms: _277  and  _280
REMARK  112  A    between atoms: _283  and  _285
REMARK  113  A    between atoms: _285  and  _286
REMARK  114  A    between atoms: _285  and  _288
REMARK  115  A    between atoms: _288  and  _289
REMARK  116  A    between atoms: _291  and  _293
REMARK  117  A    between atoms: _293  and  _294
REMARK  118  A    between atoms: _293  and  _296
REMARK  119  A    between atoms: _296  and  _297
REMARK  120  A    between atoms: _297  and  _298
REMARK  121  A    between atoms: _298  and  _299
REMARK  122  A    between atoms: _299  and  _300
REMARK  123  A    between atoms: _305  and  _306
REMARK  124  A    between atoms: _311  and  _313
REMARK  125  A    between atoms: _313  and  _314
REMARK  126  A    between atoms: _313  and  _316
REMARK  127  A    between atoms: _316  and  _317
REMARK  128  A    between atoms: _322  and  _324
REMARK  129  A    between atoms: _324  and  _325
REMARK  130  A    between atoms: _324  and  _327
REMARK  131  A    between atoms: _327  and  _328
REMARK  132  A    between atoms: _331  and  _333
REMARK  133  A    between atoms: _333  and  _334
REMARK  134  A    between atoms: _333  and  _336
REMARK  135  A    between atoms: _339  and  _341
REMARK  136  A    between atoms: _341  and  _342
REMARK  137  A    between atoms: _344  and  _346
REMARK  138  A    between atoms: _346  and  _347
REMARK  139  A    between atoms: _346  and  _349
REMARK  140  A    between atoms: _349  and  _350
REMARK  141  A    between atoms: _350  and  _351
REMARK  142  A    between atoms: _351  and  _352
REMARK  143  A    between atoms: _352  and  _353
REMARK  144  A    between atoms: _357  and  _359
REMARK  145  A    between atoms: _359  and  _360
REMARK  146  A    between atoms: _359  and  _362
REMARK  147  A    between atoms: _362  and  _363
REMARK  148  A    between atoms: _366  and  _368
REMARK  149  A    between atoms: _368  and  _369
REMARK  150  A    between atoms: _372  and  _374
REMARK  151  A    between atoms: _374  and  _375
REMARK  152  A    between atoms: _377  and  _379
REMARK  153  A    between atoms: _379  and  _380
REMARK  154  A    between atoms: _379  and  _382
REMARK  155  A    between atoms: _382  and  _383
REMARK  156  A    between atoms: _386  and  _388
REMARK  157  A    between atoms: _388  and  _389
REMARK  158  A    between atoms: _388  and  _391
REMARK  159  A    between atoms: _391  and  _392
REMARK  160  A    between atoms: _395  and  _397
REMARK  161  A    between atoms: _397  and  _398
REMARK  162  A    between atoms: _401  and  _403
REMARK  163  A    between atoms: _403  and  _404
REMARK  164  A    between atoms: _403  and  _406
REMARK  165  A    between atoms: _406  and  _407
REMARK  166  A    between atoms: _407  and  _408
REMARK  167  A    between atoms: _411  and  _413
REMARK  168  A    between atoms: _413  and  _414
REMARK  169  A    between atoms: _413  and  _416
REMARK  170  A    between atoms: _419  and  _421
REMARK  171  A    between atoms: _421  and  _422
REMARK  172  A    between atoms: _421  and  _424
REMARK  173  A    between atoms: _424  and  _425
REMARK  174  A    between atoms: _428  and  _430
REMARK  175  A    between atoms: _430  and  _431
REMARK  176  A    between atoms: _433  and  _435
REMARK  177  A    between atoms: _435  and  _436
REMARK  178  A    between atoms: _435  and  _438
REMARK  179  A    between atoms: _441  and  _443
REMARK  180  A    between atoms: _443  and  _444
REMARK  181  A    between atoms: _446  and  _448
REMARK  182  A    between atoms: _448  and  _449
REMARK  183  A    between atoms: _448  and  _451
REMARK  184  A    between atoms: _451  and  _452
REMARK  185  A    between atoms: _455  and  _457
REMARK  186  A    between atoms: _457  and  _458
REMARK  187  A    between atoms: _457  and  _460
REMARK  188  A    between atoms: _460  and  _461
REMARK  189  A    between atoms: _466  and  _468
REMARK  190  A    between atoms: _468  and  _469
REMARK  191  A    between atoms: _468  and  _471
REMARK  192  A    between atoms: _474  and  _476
REMARK  193  A    between atoms: _476  and  _477
REMARK  194  A    between atoms: _476  and  _479
REMARK  195  A    between atoms: _479  and  _480
REMARK  196  A    between atoms: _480  and  _481
REMARK  197  A    between atoms: _486  and  _488
REMARK  198  A    between atoms: _488  and  _489
REMARK  199  A    between atoms: _493  and  _494
REMARK  200  A    between atoms: _499  and  _501
REMARK  201  A    between atoms: _501  and  _502
REMARK  202  A    between atoms: _501  and  _504
REMARK  203  A    between atoms: _504  and  _505
REMARK  204  A    between atoms: _505  and  _506
REMARK  205  A    between atoms: _509  and  _511
REMARK  206  A    between atoms: _511  and  _512
REMARK  207  A    between atoms: _511  and  _514
REMARK  208  A    between atoms: _517  and  _519
REMARK  209  A    between atoms: _519  and  _520
REMARK  210  A    between atoms: _519  and  _522
REMARK  211  A    between atoms: _522  and  _523
REMARK  212  A    between atoms: _527  and  _528
REMARK  213  A    between atoms: _533  and  _535
REMARK  214  A    between atoms: _535  and  _536
REMARK  215  A    between atoms: _535  and  _538
REMARK  216  A    between atoms: _538  and  _539
REMARK  217  A    between atoms: _542  and  _544
REMARK  218  A    between atoms: _544  and  _545
REMARK  219  A    between atoms: _548  and  _550
REMARK  220  A    between atoms: _550  and  _551
REMARK  221  A    between atoms: _550  and  _553
REMARK  222  A    between atoms: _553  and  _554
REMARK  223  A    between atoms: _557  and  _559
REMARK  224  A    between atoms: _559  and  _560
REMARK  225  A    between atoms: _559  and  _562
REMARK  226  A    between atoms: _562  and  _563
REMARK  227  A    between atoms: _565  and  _567
REMARK  228  A    between atoms: _567  and  _568
REMARK  229  A    between atoms: _570  and  _572
REMARK  230  A    between atoms: _572  and  _573
REMARK  231  A    between atoms: _572  and  _575
REMARK  232  A    between atoms: _575  and  _576
REMARK  233  A    between atoms: _579  and  _581
REMARK  234  A    between atoms: _581  and  _582
REMARK  235  A    between atoms: _581  and  _584
REMARK                            x       y       z     vdW  Elec       q    Type
REMARK                         _______ _______ _______ _____ _____    ______ ____
ROOT
ATOM      1  O   HOH     1      -8.019   0.935   8.818  0.00  0.00    +0.000 OA
ENDROOT
TORSDOF 0
REMARK  Name = ../refined-set-2016/4xtw/4xtw_pocket.pdb
REMARK  235 active torsions:
REMARK  status: ('A' for Active; 'I' for Inactive)
REMARK    1  A    between atoms: _1  and  _3
REMARK    2  A    between atoms: _3  and  _4
REMARK    3  A    between atoms: _3  and  _6
REMARK    4  A    between atoms: _6  and  _7
REMARK    5  A    between atoms: _10  and  _12
REMARK    6  A    between atoms: _12  and  _13
REMARK    7  A    between atoms: _15  and  _17
REMARK    8  A    between atoms: _17  and  _18
REMARK    9  A    between atoms: _17  and  _20
REMARK   10  A    between atoms: _20  and  _21
REMARK   11  A    between atoms: _23  and  _25
REMARK   12  A    between atoms: _25  and  _26
REMARK   13  A    between atoms: _25  and  _28
REMARK   14  A    between atoms: _28  and  _29
REMARK   15  A    between atoms: _32  and  _34
REMARK   16  A    between atoms: _34  and  _35
REMARK   17  A    between atoms: _34  and  _37
REMARK   18  A    between atoms: _37  and  _38
REMARK   19  A    between atoms: _43  and  _45
REMARK   20  A    between atoms: _45  and  _46
REMARK   21  A    between atoms: _49  and  _51
REMARK   22  A    between atoms: _51  and  _52
REMARK   23  A    between atoms: _51  and  _54
REMARK   24  A    between atoms: _54  and  _55
REMARK   25  A    between atoms: _58  and  _60
REMARK   26  A    between atoms: _60  and  _61
REMARK   27  A    between atoms: _60  and  _63
REMARK   28  A    between atoms: _63  and  _64
REMARK   29  A    between atoms: _67  and  _69
REMARK   30  A    between atoms: _69  and  _70
REMARK   31  A    between atoms: _69  and  _72
REMARK   32  A    between atoms: _72  and  _73
REMARK   33  A    between atoms: _76  and  _78
REMARK   34  A    between atoms: _78  and  _79
REMARK   35  A    between atoms: _82  and  _84
REMARK   36  A    between atoms: _84  and  _85
REMARK   37  A    between atoms: _84  and  _87
REMARK   38  A    between atoms: _87  and  _88
REMARK   39  A    between atoms: _88  and  _89
REMARK   40  A    between atoms: _94  and  _96
REMARK   41  A    between atoms: _96  and  _97
REMARK   42  A    between atoms: _96  and  _99
REMARK   43  A    between atoms: _99  and  _100
REMARK   44  A    between atoms: _103  and  _105
REMARK   45  A    between atoms: _105  and  _106
REMARK   46  A    between atoms: _109  and  _111
REMARK   47  A    between atoms: _111  and  _112
REMARK   48  A    between atoms: _114  and  _116
REMARK   49  A    between atoms: _116  and  _117
REMARK   50  A    between atoms: _116  and  _119
REMARK   51  A    between atoms: _119  and  _120
REMARK   52  A    between atoms: _120  and  _121
REMARK   53  A    between atoms: _121  and  _122
REMARK   54  A    between atoms: _131  and  _133
REMARK   55  A    between atoms: _133  and  _134
REMARK   56  A    between atoms: _136  and  _138
REMARK   57  A    between atoms: _138  and  _139
REMARK   58  A    between atoms: _138  and  _141
REMARK   59  A    between atoms: _141  and  _142
REMARK   60  A    between atoms: _142  and  _143
REMARK   61  A    between atoms: _143  and  _144
REMARK   62  A    between atoms: _153  and  _155
REMARK   63  A    between atoms: _155  and  _156
REMARK   64  A    between atoms: _155  and  _158
REMARK   65  A    between atoms: _158  and  _159
REMARK   66  A    between atoms: _164  and  _166
REMARK   67  A    between atoms: _166  and  _167
REMARK   68  A    between atoms: _169  and  _171
REMARK   69  A    between atoms: _171  and  _172
REMARK   70  A    between atoms: _171  and  _174
REMARK   71  A    between atoms: _174  and  _175
REMARK   72  A    between atoms: _175  and  _176
REMARK   73  A    between atoms: _176  and  _177
REMARK   74  A    between atoms: _186  and  _188
REMARK   75  A    between atoms: _188  and  _189
REMARK   76  A    between atoms: _191  and  _193
REMARK   77  A    between atoms: _193  and  _194
REMARK   78  A    between atoms: _193  and  _196
REMARK   79  A    between atoms: _196  and  _197
REMARK   80  A    between atoms: _207  and  _209
REMARK   81  A    between atoms: _209  and  _210
REMARK   82  A    between atoms: _213  and  _215
REMARK   83  A    between atoms: _215  and  _216
REMARK   84  A    between atoms: _219  and  _221
REMARK   85  A    between atoms: _221  and  _222
REMARK   86  A    between atoms: _221  and  _224
REMARK   87  A    between atoms: _224  and  _225
REMARK   88  A    between atoms: _228  and  _230
REMARK   89  A    between atoms: _230  and  _231
REMARK   90  A    between atoms: _230  and  _233
REMARK   91  A    between atoms: _233  and  _234
REMARK   92  A    between atoms: _234  and  _235
REMARK   93  A    between atoms: _240  and  _242
REMARK   94  A    between atoms: _242  and  _243
REMARK   95  A    between atoms: _242  and  _245
REMARK   96  A    between atoms: _245  and  _246
REMARK   97  A    between atoms: _249  and  _251
REMARK   98  A    between atoms: _251  and  _252
REMARK   99  A    between atoms: _251  and  _254
REMARK  100  A    between atoms: _254  and  _255
REMARK  101  A    between atoms: _258  and  _260
REMARK  102  A    between atoms: _260  and  _261
REMARK  103  A    between atoms: _260  and  _263
REMARK  104  A    between atoms: _263  and  _264
REMARK  105  A    between atoms: _267  and  _269
REMARK  106  A    between atoms: _269  and  _270
REMARK  107  A    between atoms: _269  and  _272
REMARK  108  A    between atoms: _272  and  _273
REMARK  109  A    between atoms: _275  and  _277
REMARK  110  A    between atoms: _277  and  _278
REMARK  111  A    between atoms: _277  and  _280
REMARK  112  A    between atoms: _283  and  _285
REMARK  113  A    between atoms: _285  and  _286
REMARK  114  A    between atoms: _285  and  _288
REMARK  115  A    between atoms: _288  and  _289
REMARK  116  A    between atoms: _291  and  _293
REMARK  117  A    between atoms: _293  and  _294
REMARK  118  A    between atoms: _293  and  _296
REMARK  119  A    between atoms: _296  and  _297
REMARK  120  A    between atoms: _297  and  _298
REMARK  121  A    between atoms: _298  and  _299
REMARK  122  A    between atoms: _299  and  _300
REMARK  123  A    between atoms: _305  and  _306
REMARK  124  A    between atoms: _311  and  _313
REMARK  125  A    between atoms: _313  and  _314
REMARK  126  A    between atoms: _313  and  _316
REMARK  127  A    between atoms: _316  and  _317
REMARK  128  A    between atoms: _322  and  _324
REMARK  129  A    between atoms: _324  and  _325
REMARK  130  A    between atoms: _324  and  _327
REMARK  131  A    between atoms: _327  and  _328
REMARK  132  A    between atoms: _331  and  _333
REMARK  133  A    between atoms: _333  and  _334
REMARK  134  A    between atoms: _333  and  _336
REMARK  135  A    between atoms: _339  and  _341
REMARK  136  A    between atoms: _341  and  _342
REMARK  137  A    between atoms: _344  and  _346
REMARK  138  A    between atoms: _346  and  _347
REMARK  139  A    between atoms: _346  and  _349
REMARK  140  A    between atoms: _349  and  _350
REMARK  141  A    between atoms: _350  and  _351
REMARK  142  A    between atoms: _351  and  _352
REMARK  143  A    between atoms: _352  and  _353
REMARK  144  A    between atoms: _357  and  _359
REMARK  145  A    between atoms: _359  and  _360
REMARK  146  A    between atoms: _359  and  _362
REMARK  147  A    between atoms: _362  and  _363
REMARK  148  A    between atoms: _366  and  _368
REMARK  149  A    between atoms: _368  and  _369
REMARK  150  A    between atoms: _372  and  _374
REMARK  151  A    between atoms: _374  and  _375
REMARK  152  A    between atoms: _377  and  _379
REMARK  153  A    between atoms: _379  and  _380
REMARK  154  A    between atoms: _379  and  _382
REMARK  155  A    between atoms: _382  and  _383
REMARK  156  A    between atoms: _386  and  _388
REMARK  157  A    between atoms: _388  and  _389
REMARK  158  A    between atoms: _388  and  _391
REMARK  159  A    between atoms: _391  and  _392
REMARK  160  A    between atoms: _395  and  _397
REMARK  161  A    between atoms: _397  and  _398
REMARK  162  A    between atoms: _401  and  _403
REMARK  163  A    between atoms: _403  and  _404
REMARK  164  A    between atoms: _403  and  _406
REMARK  165  A    between atoms: _406  and  _407
REMARK  166  A    between atoms: _407  and  _408
REMARK  167  A    between atoms: _411  and  _413
REMARK  168  A    between atoms: _413  and  _414
REMARK  169  A    between atoms: _413  and  _416
REMARK  170  A    between atoms: _419  and  _421
REMARK  171  A    between atoms: _421  and  _422
REMARK  172  A    between atoms: _421  and  _424
REMARK  173  A    between atoms: _424  and  _425
REMARK  174  A    between atoms: _428  and  _430
REMARK  175  A    between atoms: _430  and  _431
REMARK  176  A    between atoms: _433  and  _435
REMARK  177  A    between atoms: _435  and  _436
REMARK  178  A    between atoms: _435  and  _438
REMARK  179  A    between atoms: _441  and  _443
REMARK  180  A    between atoms: _443  and  _444
REMARK  181  A    between atoms: _446  and  _448
REMARK  182  A    between atoms: _448  and  _449
REMARK  183  A    between atoms: _448  and  _451
REMARK  184  A    between atoms: _451  and  _452
REMARK  185  A    between atoms: _455  and  _457
REMARK  186  A    between atoms: _457  and  _458
REMARK  187  A    between atoms: _457  and  _460
REMARK  188  A    between atoms: _460  and  _461
REMARK  189  A    between atoms: _466  and  _468
REMARK  190  A    between atoms: _468  and  _469
REMARK  191  A    between atoms: _468  and  _471
REMARK  192  A    between atoms: _474  and  _476
REMARK  193  A    between atoms: _476  and  _477
REMARK  194  A    between atoms: _476  and  _479
REMARK  195  A    between atoms: _479  and  _480
REMARK  196  A    between atoms: _480  and  _481
REMARK  197  A    between atoms: _486  and  _488
REMARK  198  A    between atoms: _488  and  _489
REMARK  199  A    between atoms: _493  and  _494
REMARK  200  A    between atoms: _499  and  _501
REMARK  201  A    between atoms: _501  and  _502
REMARK  202  A    between atoms: _501  and  _504
REMARK  203  A    between atoms: _504  and  _505
REMARK  204  A    between atoms: _505  and  _506
REMARK  205  A    between atoms: _509  and  _511
REMARK  206  A    between atoms: _511  and  _512
REMARK  207  A    between atoms: _511  and  _514
REMARK  208  A    between atoms: _517  and  _519
REMARK  209  A    between atoms: _519  and  _520
REMARK  210  A    between atoms: _519  and  _522
REMARK  211  A    between atoms: _522  and  _523
REMARK  212  A    between atoms: _527  and  _528
REMARK  213  A    between atoms: _533  and  _535
REMARK  214  A    between atoms: _535  and  _536
REMARK  215  A    between atoms: _535  and  _538
REMARK  216  A    between atoms: _538  and  _539
REMARK  217  A    between atoms: _542  and  _544
REMARK  218  A    between atoms: _544  and  _545
REMARK  219  A    between atoms: _548  and  _550
REMARK  220  A    between atoms: _550  and  _551
REMARK  221  A    between atoms: _550  and  _553
REMARK  222  A    between atoms: _553  and  _554
REMARK  223  A    between atoms: _557  and  _559
REMARK  224  A    between atoms: _559  and  _560
REMARK  225  A    between atoms: _559  and  _562
REMARK  226  A    between atoms: _562  and  _563
REMARK  227  A    between atoms: _565  and  _567
REMARK  228  A    between atoms: _567  and  _568
REMARK  229  A    between atoms: _570  and  _572
REMARK  230  A    between atoms: _572  and  _573
REMARK  231  A    between atoms: _572  and  _575
REMARK  232  A    between atoms: _575  and  _576
REMARK  233  A    between atoms: _579  and  _581
REMARK  234  A    between atoms: _581  and  _582
REMARK  235  A    between atoms: _581  and  _584
REMARK                            x       y       z     vdW  Elec       q    Type
REMARK                         _______ _______ _______ _____ _____    ______ ____
ROOT
ATOM      1  O   HOH     1      -0.331  -3.922  17.394  0.00  0.00    +0.000 OA
ENDROOT
TORSDOF 0
REMARK  Name = ../refined-set-2016/4xtw/4xtw_pocket.pdb
REMARK  235 active torsions:
REMARK  status: ('A' for Active; 'I' for Inactive)
REMARK    1  A    between atoms: _1  and  _3
REMARK    2  A    between atoms: _3  and  _4
REMARK    3  A    between atoms: _3  and  _6
REMARK    4  A    between atoms: _6  and  _7
REMARK    5  A    between atoms: _10  and  _12
REMARK    6  A    between atoms: _12  and  _13
REMARK    7  A    between atoms: _15  and  _17
REMARK    8  A    between atoms: _17  and  _18
REMARK    9  A    between atoms: _17  and  _20
REMARK   10  A    between atoms: _20  and  _21
REMARK   11  A    between atoms: _23  and  _25
REMARK   12  A    between atoms: _25  and  _26
REMARK   13  A    between atoms: _25  and  _28
REMARK   14  A    between atoms: _28  and  _29
REMARK   15  A    between atoms: _32  and  _34
REMARK   16  A    between atoms: _34  and  _35
REMARK   17  A    between atoms: _34  and  _37
REMARK   18  A    between atoms: _37  and  _38
REMARK   19  A    between atoms: _43  and  _45
REMARK   20  A    between atoms: _45  and  _46
REMARK   21  A    between atoms: _49  and  _51
REMARK   22  A    between atoms: _51  and  _52
REMARK   23  A    between atoms: _51  and  _54
REMARK   24  A    between atoms: _54  and  _55
REMARK   25  A    between atoms: _58  and  _60
REMARK   26  A    between atoms: _60  and  _61
REMARK   27  A    between atoms: _60  and  _63
REMARK   28  A    between atoms: _63  and  _64
REMARK   29  A    between atoms: _67  and  _69
REMARK   30  A    between atoms: _69  and  _70
REMARK   31  A    between atoms: _69  and  _72
REMARK   32  A    between atoms: _72  and  _73
REMARK   33  A    between atoms: _76  and  _78
REMARK   34  A    between atoms: _78  and  _79
REMARK   35  A    between atoms: _82  and  _84
REMARK   36  A    between atoms: _84  and  _85
REMARK   37  A    between atoms: _84  and  _87
REMARK   38  A    between atoms: _87  and  _88
REMARK   39  A    between atoms: _88  and  _89
REMARK   40  A    between atoms: _94  and  _96
REMARK   41  A    between atoms: _96  and  _97
REMARK   42  A    between atoms: _96  and  _99
REMARK   43  A    between atoms: _99  and  _100
REMARK   44  A    between atoms: _103  and  _105
REMARK   45  A    between atoms: _105  and  _106
REMARK   46  A    between atoms: _109  and  _111
REMARK   47  A    between atoms: _111  and  _112
REMARK   48  A    between atoms: _114  and  _116
REMARK   49  A    between atoms: _116  and  _117
REMARK   50  A    between atoms: _116  and  _119
REMARK   51  A    between atoms: _119  and  _120
REMARK   52  A    between atoms: _120  and  _121
REMARK   53  A    between atoms: _121  and  _122
REMARK   54  A    between atoms: _131  and  _133
REMARK   55  A    between atoms: _133  and  _134
REMARK   56  A    between atoms: _136  and  _138
REMARK   57  A    between atoms: _138  and  _139
REMARK   58  A    between atoms: _138  and  _141
REMARK   59  A    between atoms: _141  and  _142
REMARK   60  A    between atoms: _142  and  _143
REMARK   61  A    between atoms: _143  and  _144
REMARK   62  A    between atoms: _153  and  _155
REMARK   63  A    between atoms: _155  and  _156
REMARK   64  A    between atoms: _155  and  _158
REMARK   65  A    between atoms: _158  and  _159
REMARK   66  A    between atoms: _164  and  _166
REMARK   67  A    between atoms: _166  and  _167
REMARK   68  A    between atoms: _169  and  _171
REMARK   69  A    between atoms: _171  and  _172
REMARK   70  A    between atoms: _171  and  _174
REMARK   71  A    between atoms: _174  and  _175
REMARK   72  A    between atoms: _175  and  _176
REMARK   73  A    between atoms: _176  and  _177
REMARK   74  A    between atoms: _186  and  _188
REMARK   75  A    between atoms: _188  and  _189
REMARK   76  A    between atoms: _191  and  _193
REMARK   77  A    between atoms: _193  and  _194
REMARK   78  A    between atoms: _193  and  _196
REMARK   79  A    between atoms: _196  and  _197
REMARK   80  A    between atoms: _207  and  _209
REMARK   81  A    between atoms: _209  and  _210
REMARK   82  A    between atoms: _213  and  _215
REMARK   83  A    between atoms: _215  and  _216
REMARK   84  A    between atoms: _219  and  _221
REMARK   85  A    between atoms: _221  and  _222
REMARK   86  A    between atoms: _221  and  _224
REMARK   87  A    between atoms: _224  and  _225
REMARK   88  A    between atoms: _228  and  _230
REMARK   89  A    between atoms: _230  and  _231
REMARK   90  A    between atoms: _230  and  _233
REMARK   91  A    between atoms: _233  and  _234
REMARK   92  A    between atoms: _234  and  _235
REMARK   93  A    between atoms: _240  and  _242
REMARK   94  A    between atoms: _242  and  _243
REMARK   95  A    between atoms: _242  and  _245
REMARK   96  A    between atoms: _245  and  _246
REMARK   97  A    between atoms: _249  and  _251
REMARK   98  A    between atoms: _251  and  _252
REMARK   99  A    between atoms: _251  and  _254
REMARK  100  A    between atoms: _254  and  _255
REMARK  101  A    between atoms: _258  and  _260
REMARK  102  A    between atoms: _260  and  _261
REMARK  103  A    between atoms: _260  and  _263
REMARK  104  A    between atoms: _263  and  _264
REMARK  105  A    between atoms: _267  and  _269
REMARK  106  A    between atoms: _269  and  _270
REMARK  107  A    between atoms: _269  and  _272
REMARK  108  A    between atoms: _272  and  _273
REMARK  109  A    between atoms: _275  and  _277
REMARK  110  A    between atoms: _277  and  _278
REMARK  111  A    between atoms: _277  and  _280
REMARK  112  A    between atoms: _283  and  _285
REMARK  113  A    between atoms: _285  and  _286
REMARK  114  A    between atoms: _285  and  _288
REMARK  115  A    between atoms: _288  and  _289
REMARK  116  A    between atoms: _291  and  _293
REMARK  117  A    between atoms: _293  and  _294
REMARK  118  A    between atoms: _293  and  _296
REMARK  119  A    between atoms: _296  and  _297
REMARK  120  A    between atoms: _297  and  _298
REMARK  121  A    between atoms: _298  and  _299
REMARK  122  A    between atoms: _299  and  _300
REMARK  123  A    between atoms: _305  and  _306
REMARK  124  A    between atoms: _311  and  _313
REMARK  125  A    between atoms: _313  and  _314
REMARK  126  A    between atoms: _313  and  _316
REMARK  127  A    between atoms: _316  and  _317
REMARK  128  A    between atoms: _322  and  _324
REMARK  129  A    between atoms: _324  and  _325
REMARK  130  A    between atoms: _324  and  _327
REMARK  131  A    between atoms: _327  and  _328
REMARK  132  A    between atoms: _331  and  _333
REMARK  133  A    between atoms: _333  and  _334
REMARK  134  A    between atoms: _333  and  _336
REMARK  135  A    between atoms: _339  and  _341
REMARK  136  A    between atoms: _341  and  _342
REMARK  137  A    between atoms: _344  and  _346
REMARK  138  A    between atoms: _346  and  _347
REMARK  139  A    between atoms: _346  and  _349
REMARK  140  A    between atoms: _349  and  _350
REMARK  141  A    between atoms: _350  and  _351
REMARK  142  A    between atoms: _351  and  _352
REMARK  143  A    between atoms: _352  and  _353
REMARK  144  A    between atoms: _357  and  _359
REMARK  145  A    between atoms: _359  and  _360
REMARK  146  A    between atoms: _359  and  _362
REMARK  147  A    between atoms: _362  and  _363
REMARK  148  A    between atoms: _366  and  _368
REMARK  149  A    between atoms: _368  and  _369
REMARK  150  A    between atoms: _372  and  _374
REMARK  151  A    between atoms: _374  and  _375
REMARK  152  A    between atoms: _377  and  _379
REMARK  153  A    between atoms: _379  and  _380
REMARK  154  A    between atoms: _379  and  _382
REMARK  155  A    between atoms: _382  and  _383
REMARK  156  A    between atoms: _386  and  _388
REMARK  157  A    between atoms: _388  and  _389
REMARK  158  A    between atoms: _388  and  _391
REMARK  159  A    between atoms: _391  and  _392
REMARK  160  A    between atoms: _395  and  _397
REMARK  161  A    between atoms: _397  and  _398
REMARK  162  A    between atoms: _401  and  _403
REMARK  163  A    between atoms: _403  and  _404
REMARK  164  A    between atoms: _403  and  _406
REMARK  165  A    between atoms: _406  and  _407
REMARK  166  A    between atoms: _407  and  _408
REMARK  167  A    between atoms: _411  and  _413
REMARK  168  A    between atoms: _413  and  _414
REMARK  169  A    between atoms: _413  and  _416
REMARK  170  A    between atoms: _419  and  _421
REMARK  171  A    between atoms: _421  and  _422
REMARK  172  A    between atoms: _421  and  _424
REMARK  173  A    between atoms: _424  and  _425
REMARK  174  A    between atoms: _428  and  _430
REMARK  175  A    between atoms: _430  and  _431
REMARK  176  A    between atoms: _433  and  _435
REMARK  177  A    between atoms: _435  and  _436
REMARK  178  A    between atoms: _435  and  _438
REMARK  179  A    between atoms: _441  and  _443
REMARK  180  A    between atoms: _443  and  _444
REMARK  181  A    between atoms: _446  and  _448
REMARK  182  A    between atoms: _448  and  _449
REMARK  183  A    between atoms: _448  and  _451
REMARK  184  A    between atoms: _451  and  _452
REMARK  185  A    between atoms: _455  and  _457
REMARK  186  A    between atoms: _457  and  _458
REMARK  187  A    between atoms: _457  and  _460
REMARK  188  A    between atoms: _460  and  _461
REMARK  189  A    between atoms: _466  and  _468
REMARK  190  A    between atoms: _468  and  _469
REMARK  191  A    between atoms: _468  and  _471
REMARK  192  A    between atoms: _474  and  _476
REMARK  193  A    between atoms: _476  and  _477
REMARK  194  A    between atoms: _476  and  _479
REMARK  195  A    between atoms: _479  and  _480
REMARK  196  A    between atoms: _480  and  _481
REMARK  197  A    between atoms: _486  and  _488
REMARK  198  A    between atoms: _488  and  _489
REMARK  199  A    between atoms: _493  and  _494
REMARK  200  A    between atoms: _499  and  _501
REMARK  201  A    between atoms: _501  and  _502
REMARK  202  A    between atoms: _501  and  _504
REMARK  203  A    between atoms: _504  and  _505
REMARK  204  A    between atoms: _505  and  _506
REMARK  205  A    between atoms: _509  and  _511
REMARK  206  A    between atoms: _511  and  _512
REMARK  207  A    between atoms: _511  and  _514
REMARK  208  A    between atoms: _517  and  _519
REMARK  209  A    between atoms: _519  and  _520
REMARK  210  A    between atoms: _519  and  _522
REMARK  211  A    between atoms: _522  and  _523
REMARK  212  A    between atoms: _527  and  _528
REMARK  213  A    between atoms: _533  and  _535
REMARK  214  A    between atoms: _535  and  _536
REMARK  215  A    between atoms: _535  and  _538
REMARK  216  A    between atoms: _538  and  _539
REMARK  217  A    between atoms: _542  and  _544
REMARK  218  A    between atoms: _544  and  _545
REMARK  219  A    between atoms: _548  and  _550
REMARK  220  A    between atoms: _550  and  _551
REMARK  221  A    between atoms: _550  and  _553
REMARK  222  A    between atoms: _553  and  _554
REMARK  223  A    between atoms: _557  and  _559
REMARK  224  A    between atoms: _559  and  _560
REMARK  225  A    between atoms: _559  and  _562
REMARK  226  A    between atoms: _562  and  _563
REMARK  227  A    between atoms: _565  and  _567
REMARK  228  A    between atoms: _567  and  _568
REMARK  229  A    between atoms: _570  and  _572
REMARK  230  A    between atoms: _572  and  _573
REMARK  231  A    between atoms: _572  and  _575
REMARK  232  A    between atoms: _575  and  _576
REMARK  233  A    between atoms: _579  and  _581
REMARK  234  A    between atoms: _581  and  _582
REMARK  235  A    between atoms: _581  and  _584
REMARK                            x       y       z     vdW  Elec       q    Type
REMARK                         _______ _______ _______ _____ _____    ______ ____
ROOT
ATOM      1  O   HOH     1       0.861   0.643   8.461  0.00  0.00    +0.000 OA
ENDROOT
TORSDOF 0
REMARK  Name = ../refined-set-2016/4xtw/4xtw_pocket.pdb
REMARK  235 active torsions:
REMARK  status: ('A' for Active; 'I' for Inactive)
REMARK    1  A    between atoms: _1  and  _3
REMARK    2  A    between atoms: _3  and  _4
REMARK    3  A    between atoms: _3  and  _6
REMARK    4  A    between atoms: _6  and  _7
REMARK    5  A    between atoms: _10  and  _12
REMARK    6  A    between atoms: _12  and  _13
REMARK    7  A    between atoms: _15  and  _17
REMARK    8  A    between atoms: _17  and  _18
REMARK    9  A    between atoms: _17  and  _20
REMARK   10  A    between atoms: _20  and  _21
REMARK   11  A    between atoms: _23  and  _25
REMARK   12  A    between atoms: _25  and  _26
REMARK   13  A    between atoms: _25  and  _28
REMARK   14  A    between atoms: _28  and  _29
REMARK   15  A    between atoms: _32  and  _34
REMARK   16  A    between atoms: _34  and  _35
REMARK   17  A    between atoms: _34  and  _37
REMARK   18  A    between atoms: _37  and  _38
REMARK   19  A    between atoms: _43  and  _45
REMARK   20  A    between atoms: _45  and  _46
REMARK   21  A    between atoms: _49  and  _51
REMARK   22  A    between atoms: _51  and  _52
REMARK   23  A    between atoms: _51  and  _54
REMARK   24  A    between atoms: _54  and  _55
REMARK   25  A    between atoms: _58  and  _60
REMARK   26  A    between atoms: _60  and  _61
REMARK   27  A    between atoms: _60  and  _63
REMARK   28  A    between atoms: _63  and  _64
REMARK   29  A    between atoms: _67  and  _69
REMARK   30  A    between atoms: _69  and  _70
REMARK   31  A    between atoms: _69  and  _72
REMARK   32  A    between atoms: _72  and  _73
REMARK   33  A    between atoms: _76  and  _78
REMARK   34  A    between atoms: _78  and  _79
REMARK   35  A    between atoms: _82  and  _84
REMARK   36  A    between atoms: _84  and  _85
REMARK   37  A    between atoms: _84  and  _87
REMARK   38  A    between atoms: _87  and  _88
REMARK   39  A    between atoms: _88  and  _89
REMARK   40  A    between atoms: _94  and  _96
REMARK   41  A    between atoms: _96  and  _97
REMARK   42  A    between atoms: _96  and  _99
REMARK   43  A    between atoms: _99  and  _100
REMARK   44  A    between atoms: _103  and  _105
REMARK   45  A    between atoms: _105  and  _106
REMARK   46  A    between atoms: _109  and  _111
REMARK   47  A    between atoms: _111  and  _112
REMARK   48  A    between atoms: _114  and  _116
REMARK   49  A    between atoms: _116  and  _117
REMARK   50  A    between atoms: _116  and  _119
REMARK   51  A    between atoms: _119  and  _120
REMARK   52  A    between atoms: _120  and  _121
REMARK   53  A    between atoms: _121  and  _122
REMARK   54  A    between atoms: _131  and  _133
REMARK   55  A    between atoms: _133  and  _134
REMARK   56  A    between atoms: _136  and  _138
REMARK   57  A    between atoms: _138  and  _139
REMARK   58  A    between atoms: _138  and  _141
REMARK   59  A    between atoms: _141  and  _142
REMARK   60  A    between atoms: _142  and  _143
REMARK   61  A    between atoms: _143  and  _144
REMARK   62  A    between atoms: _153  and  _155
REMARK   63  A    between atoms: _155  and  _156
REMARK   64  A    between atoms: _155  and  _158
REMARK   65  A    between atoms: _158  and  _159
REMARK   66  A    between atoms: _164  and  _166
REMARK   67  A    between atoms: _166  and  _167
REMARK   68  A    between atoms: _169  and  _171
REMARK   69  A    between atoms: _171  and  _172
REMARK   70  A    between atoms: _171  and  _174
REMARK   71  A    between atoms: _174  and  _175
REMARK   72  A    between atoms: _175  and  _176
REMARK   73  A    between atoms: _176  and  _177
REMARK   74  A    between atoms: _186  and  _188
REMARK   75  A    between atoms: _188  and  _189
REMARK   76  A    between atoms: _191  and  _193
REMARK   77  A    between atoms: _193  and  _194
REMARK   78  A    between atoms: _193  and  _196
REMARK   79  A    between atoms: _196  and  _197
REMARK   80  A    between atoms: _207  and  _209
REMARK   81  A    between atoms: _209  and  _210
REMARK   82  A    between atoms: _213  and  _215
REMARK   83  A    between atoms: _215  and  _216
REMARK   84  A    between atoms: _219  and  _221
REMARK   85  A    between atoms: _221  and  _222
REMARK   86  A    between atoms: _221  and  _224
REMARK   87  A    between atoms: _224  and  _225
REMARK   88  A    between atoms: _228  and  _230
REMARK   89  A    between atoms: _230  and  _231
REMARK   90  A    between atoms: _230  and  _233
REMARK   91  A    between atoms: _233  and  _234
REMARK   92  A    between atoms: _234  and  _235
REMARK   93  A    between atoms: _240  and  _242
REMARK   94  A    between atoms: _242  and  _243
REMARK   95  A    between atoms: _242  and  _245
REMARK   96  A    between atoms: _245  and  _246
REMARK   97  A    between atoms: _249  and  _251
REMARK   98  A    between atoms: _251  and  _252
REMARK   99  A    between atoms: _251  and  _254
REMARK  100  A    between atoms: _254  and  _255
REMARK  101  A    between atoms: _258  and  _260
REMARK  102  A    between atoms: _260  and  _261
REMARK  103  A    between atoms: _260  and  _263
REMARK  104  A    between atoms: _263  and  _264
REMARK  105  A    between atoms: _267  and  _269
REMARK  106  A    between atoms: _269  and  _270
REMARK  107  A    between atoms: _269  and  _272
REMARK  108  A    between atoms: _272  and  _273
REMARK  109  A    between atoms: _275  and  _277
REMARK  110  A    between atoms: _277  and  _278
REMARK  111  A    between atoms: _277  and  _280
REMARK  112  A    between atoms: _283  and  _285
REMARK  113  A    between atoms: _285  and  _286
REMARK  114  A    between atoms: _285  and  _288
REMARK  115  A    between atoms: _288  and  _289
REMARK  116  A    between atoms: _291  and  _293
REMARK  117  A    between atoms: _293  and  _294
REMARK  118  A    between atoms: _293  and  _296
REMARK  119  A    between atoms: _296  and  _297
REMARK  120  A    between atoms: _297  and  _298
REMARK  121  A    between atoms: _298  and  _299
REMARK  122  A    between atoms: _299  and  _300
REMARK  123  A    between atoms: _305  and  _306
REMARK  124  A    between atoms: _311  and  _313
REMARK  125  A    between atoms: _313  and  _314
REMARK  126  A    between atoms: _313  and  _316
REMARK  127  A    between atoms: _316  and  _317
REMARK  128  A    between atoms: _322  and  _324
REMARK  129  A    between atoms: _324  and  _325
REMARK  130  A    between atoms: _324  and  _327
REMARK  131  A    between atoms: _327  and  _328
REMARK  132  A    between atoms: _331  and  _333
REMARK  133  A    between atoms: _333  and  _334
REMARK  134  A    between atoms: _333  and  _336
REMARK  135  A    between atoms: _339  and  _341
REMARK  136  A    between atoms: _341  and  _342
REMARK  137  A    between atoms: _344  and  _346
REMARK  138  A    between atoms: _346  and  _347
REMARK  139  A    between atoms: _346  and  _349
REMARK  140  A    between atoms: _349  and  _350
REMARK  141  A    between atoms: _350  and  _351
REMARK  142  A    between atoms: _351  and  _352
REMARK  143  A    between atoms: _352  and  _353
REMARK  144  A    between atoms: _357  and  _359
REMARK  145  A    between atoms: _359  and  _360
REMARK  146  A    between atoms: _359  and  _362
REMARK  147  A    between atoms: _362  and  _363
REMARK  148  A    between atoms: _366  and  _368
REMARK  149  A    between atoms: _368  and  _369
REMARK  150  A    between atoms: _372  and  _374
REMARK  151  A    between atoms: _374  and  _375
REMARK  152  A    between atoms: _377  and  _379
REMARK  153  A    between atoms: _379  and  _380
REMARK  154  A    between atoms: _379  and  _382
REMARK  155  A    between atoms: _382  and  _383
REMARK  156  A    between atoms: _386  and  _388
REMARK  157  A    between atoms: _388  and  _389
REMARK  158  A    between atoms: _388  and  _391
REMARK  159  A    between atoms: _391  and  _392
REMARK  160  A    between atoms: _395  and  _397
REMARK  161  A    between atoms: _397  and  _398
REMARK  162  A    between atoms: _401  and  _403
REMARK  163  A    between atoms: _403  and  _404
REMARK  164  A    between atoms: _403  and  _406
REMARK  165  A    between atoms: _406  and  _407
REMARK  166  A    between atoms: _407  and  _408
REMARK  167  A    between atoms: _411  and  _413
REMARK  168  A    between atoms: _413  and  _414
REMARK  169  A    between atoms: _413  and  _416
REMARK  170  A    between atoms: _419  and  _421
REMARK  171  A    between atoms: _421  and  _422
REMARK  172  A    between atoms: _421  and  _424
REMARK  173  A    between atoms: _424  and  _425
REMARK  174  A    between atoms: _428  and  _430
REMARK  175  A    between atoms: _430  and  _431
REMARK  176  A    between atoms: _433  and  _435
REMARK  177  A    between atoms: _435  and  _436
REMARK  178  A    between atoms: _435  and  _438
REMARK  179  A    between atoms: _441  and  _443
REMARK  180  A    between atoms: _443  and  _444
REMARK  181  A    between atoms: _446  and  _448
REMARK  182  A    between atoms: _448  and  _449
REMARK  183  A    between atoms: _448  and  _451
REMARK  184  A    between atoms: _451  and  _452
REMARK  185  A    between atoms: _455  and  _457
REMARK  186  A    between atoms: _457  and  _458
REMARK  187  A    between atoms: _457  and  _460
REMARK  188  A    between atoms: _460  and  _461
REMARK  189  A    between atoms: _466  and  _468
REMARK  190  A    between atoms: _468  and  _469
REMARK  191  A    between atoms: _468  and  _471
REMARK  192  A    between atoms: _474  and  _476
REMARK  193  A    between atoms: _476  and  _477
REMARK  194  A    between atoms: _476  and  _479
REMARK  195  A    between atoms: _479  and  _480
REMARK  196  A    between atoms: _480  and  _481
REMARK  197  A    between atoms: _486  and  _488
REMARK  198  A    between atoms: _488  and  _489
REMARK  199  A    between atoms: _493  and  _494
REMARK  200  A    between atoms: _499  and  _501
REMARK  201  A    between atoms: _501  and  _502
REMARK  202  A    between atoms: _501  and  _504
REMARK  203  A    between atoms: _504  and  _505
REMARK  204  A    between atoms: _505  and  _506
REMARK  205  A    between atoms: _509  and  _511
REMARK  206  A    between atoms: _511  and  _512
REMARK  207  A    between atoms: _511  and  _514
REMARK  208  A    between atoms: _517  and  _519
REMARK  209  A    between atoms: _519  and  _520
REMARK  210  A    between atoms: _519  and  _522
REMARK  211  A    between atoms: _522  and  _523
REMARK  212  A    between atoms: _527  and  _528
REMARK  213  A    between atoms: _533  and  _535
REMARK  214  A    between atoms: _535  and  _536
REMARK  215  A    between atoms: _535  and  _538
REMARK  216  A    between atoms: _538  and  _539
REMARK  217  A    between atoms: _542  and  _544
REMARK  218  A    between atoms: _544  and  _545
REMARK  219  A    between atoms: _548  and  _550
REMARK  220  A    between atoms: _550  and  _551
REMARK  221  A    between atoms: _550  and  _553
REMARK  222  A    between atoms: _553  and  _554
REMARK  223  A    between atoms: _557  and  _559
REMARK  224  A    between atoms: _559  and  _560
REMARK  225  A    between atoms: _559  and  _562
REMARK  226  A    between atoms: _562  and  _563
REMARK  227  A    between atoms: _565  and  _567
REMARK  228  A    between atoms: _567  and  _568
REMARK  229  A    between atoms: _570  and  _572
REMARK  230  A    between atoms: _572  and  _573
REMARK  231  A    between atoms: _572  and  _575
REMARK  232  A    between atoms: _575  and  _576
REMARK  233  A    between atoms: _579  and  _581
REMARK  234  A    between atoms: _581  and  _582
REMARK  235  A    between atoms: _581  and  _584
REMARK                            x       y       z     vdW  Elec       q    Type
REMARK                         _______ _______ _______ _____ _____    ______ ____
ROOT
ATOM      1  O   HOH     1       0.899  -0.514  18.582  0.00  0.00    +0.000 OA
ENDROOT
TORSDOF 0
REMARK  Name = ../refined-set-2016/4xtw/4xtw_pocket.pdb
REMARK  235 active torsions:
REMARK  status: ('A' for Active; 'I' for Inactive)
REMARK    1  A    between atoms: _1  and  _3
REMARK    2  A    between atoms: _3  and  _4
REMARK    3  A    between atoms: _3  and  _6
REMARK    4  A    between atoms: _6  and  _7
REMARK    5  A    between atoms: _10  and  _12
REMARK    6  A    between atoms: _12  and  _13
REMARK    7  A    between atoms: _15  and  _17
REMARK    8  A    between atoms: _17  and  _18
REMARK    9  A    between atoms: _17  and  _20
REMARK   10  A    between atoms: _20  and  _21
REMARK   11  A    between atoms: _23  and  _25
REMARK   12  A    between atoms: _25  and  _26
REMARK   13  A    between atoms: _25  and  _28
REMARK   14  A    between atoms: _28  and  _29
REMARK   15  A    between atoms: _32  and  _34
REMARK   16  A    between atoms: _34  and  _35
REMARK   17  A    between atoms: _34  and  _37
REMARK   18  A    between atoms: _37  and  _38
REMARK   19  A    between atoms: _43  and  _45
REMARK   20  A    between atoms: _45  and  _46
REMARK   21  A    between atoms: _49  and  _51
REMARK   22  A    between atoms: _51  and  _52
REMARK   23  A    between atoms: _51  and  _54
REMARK   24  A    between atoms: _54  and  _55
REMARK   25  A    between atoms: _58  and  _60
REMARK   26  A    between atoms: _60  and  _61
REMARK   27  A    between atoms: _60  and  _63
REMARK   28  A    between atoms: _63  and  _64
REMARK   29  A    between atoms: _67  and  _69
REMARK   30  A    between atoms: _69  and  _70
REMARK   31  A    between atoms: _69  and  _72
REMARK   32  A    between atoms: _72  and  _73
REMARK   33  A    between atoms: _76  and  _78
REMARK   34  A    between atoms: _78  and  _79
REMARK   35  A    between atoms: _82  and  _84
REMARK   36  A    between atoms: _84  and  _85
REMARK   37  A    between atoms: _84  and  _87
REMARK   38  A    between atoms: _87  and  _88
REMARK   39  A    between atoms: _88  and  _89
REMARK   40  A    between atoms: _94  and  _96
REMARK   41  A    between atoms: _96  and  _97
REMARK   42  A    between atoms: _96  and  _99
REMARK   43  A    between atoms: _99  and  _100
REMARK   44  A    between atoms: _103  and  _105
REMARK   45  A    between atoms: _105  and  _106
REMARK   46  A    between atoms: _109  and  _111
REMARK   47  A    between atoms: _111  and  _112
REMARK   48  A    between atoms: _114  and  _116
REMARK   49  A    between atoms: _116  and  _117
REMARK   50  A    between atoms: _116  and  _119
REMARK   51  A    between atoms: _119  and  _120
REMARK   52  A    between atoms: _120  and  _121
REMARK   53  A    between atoms: _121  and  _122
REMARK   54  A    between atoms: _131  and  _133
REMARK   55  A    between atoms: _133  and  _134
REMARK   56  A    between atoms: _136  and  _138
REMARK   57  A    between atoms: _138  and  _139
REMARK   58  A    between atoms: _138  and  _141
REMARK   59  A    between atoms: _141  and  _142
REMARK   60  A    between atoms: _142  and  _143
REMARK   61  A    between atoms: _143  and  _144
REMARK   62  A    between atoms: _153  and  _155
REMARK   63  A    between atoms: _155  and  _156
REMARK   64  A    between atoms: _155  and  _158
REMARK   65  A    between atoms: _158  and  _159
REMARK   66  A    between atoms: _164  and  _166
REMARK   67  A    between atoms: _166  and  _167
REMARK   68  A    between atoms: _169  and  _171
REMARK   69  A    between atoms: _171  and  _172
REMARK   70  A    between atoms: _171  and  _174
REMARK   71  A    between atoms: _174  and  _175
REMARK   72  A    between atoms: _175  and  _176
REMARK   73  A    between atoms: _176  and  _177
REMARK   74  A    between atoms: _186  and  _188
REMARK   75  A    between atoms: _188  and  _189
REMARK   76  A    between atoms: _191  and  _193
REMARK   77  A    between atoms: _193  and  _194
REMARK   78  A    between atoms: _193  and  _196
REMARK   79  A    between atoms: _196  and  _197
REMARK   80  A    between atoms: _207  and  _209
REMARK   81  A    between atoms: _209  and  _210
REMARK   82  A    between atoms: _213  and  _215
REMARK   83  A    between atoms: _215  and  _216
REMARK   84  A    between atoms: _219  and  _221
REMARK   85  A    between atoms: _221  and  _222
REMARK   86  A    between atoms: _221  and  _224
REMARK   87  A    between atoms: _224  and  _225
REMARK   88  A    between atoms: _228  and  _230
REMARK   89  A    between atoms: _230  and  _231
REMARK   90  A    between atoms: _230  and  _233
REMARK   91  A    between atoms: _233  and  _234
REMARK   92  A    between atoms: _234  and  _235
REMARK   93  A    between atoms: _240  and  _242
REMARK   94  A    between atoms: _242  and  _243
REMARK   95  A    between atoms: _242  and  _245
REMARK   96  A    between atoms: _245  and  _246
REMARK   97  A    between atoms: _249  and  _251
REMARK   98  A    between atoms: _251  and  _252
REMARK   99  A    between atoms: _251  and  _254
REMARK  100  A    between atoms: _254  and  _255
REMARK  101  A    between atoms: _258  and  _260
REMARK  102  A    between atoms: _260  and  _261
REMARK  103  A    between atoms: _260  and  _263
REMARK  104  A    between atoms: _263  and  _264
REMARK  105  A    between atoms: _267  and  _269
REMARK  106  A    between atoms: _269  and  _270
REMARK  107  A    between atoms: _269  and  _272
REMARK  108  A    between atoms: _272  and  _273
REMARK  109  A    between atoms: _275  and  _277
REMARK  110  A    between atoms: _277  and  _278
REMARK  111  A    between atoms: _277  and  _280
REMARK  112  A    between atoms: _283  and  _285
REMARK  113  A    between atoms: _285  and  _286
REMARK  114  A    between atoms: _285  and  _288
REMARK  115  A    between atoms: _288  and  _289
REMARK  116  A    between atoms: _291  and  _293
REMARK  117  A    between atoms: _293  and  _294
REMARK  118  A    between atoms: _293  and  _296
REMARK  119  A    between atoms: _296  and  _297
REMARK  120  A    between atoms: _297  and  _298
REMARK  121  A    between atoms: _298  and  _299
REMARK  122  A    between atoms: _299  and  _300
REMARK  123  A    between atoms: _305  and  _306
REMARK  124  A    between atoms: _311  and  _313
REMARK  125  A    between atoms: _313  and  _314
REMARK  126  A    between atoms: _313  and  _316
REMARK  127  A    between atoms: _316  and  _317
REMARK  128  A    between atoms: _322  and  _324
REMARK  129  A    between atoms: _324  and  _325
REMARK  130  A    between atoms: _324  and  _327
REMARK  131  A    between atoms: _327  and  _328
REMARK  132  A    between atoms: _331  and  _333
REMARK  133  A    between atoms: _333  and  _334
REMARK  134  A    between atoms: _333  and  _336
REMARK  135  A    between atoms: _339  and  _341
REMARK  136  A    between atoms: _341  and  _342
REMARK  137  A    between atoms: _344  and  _346
REMARK  138  A    between atoms: _346  and  _347
REMARK  139  A    between atoms: _346  and  _349
REMARK  140  A    between atoms: _349  and  _350
REMARK  141  A    between atoms: _350  and  _351
REMARK  142  A    between atoms: _351  and  _352
REMARK  143  A    between atoms: _352  and  _353
REMARK  144  A    between atoms: _357  and  _359
REMARK  145  A    between atoms: _359  and  _360
REMARK  146  A    between atoms: _359  and  _362
REMARK  147  A    between atoms: _362  and  _363
REMARK  148  A    between atoms: _366  and  _368
REMARK  149  A    between atoms: _368  and  _369
REMARK  150  A    between atoms: _372  and  _374
REMARK  151  A    between atoms: _374  and  _375
REMARK  152  A    between atoms: _377  and  _379
REMARK  153  A    between atoms: _379  and  _380
REMARK  154  A    between atoms: _379  and  _382
REMARK  155  A    between atoms: _382  and  _383
REMARK  156  A    between atoms: _386  and  _388
REMARK  157  A    between atoms: _388  and  _389
REMARK  158  A    between atoms: _388  and  _391
REMARK  159  A    between atoms: _391  and  _392
REMARK  160  A    between atoms: _395  and  _397
REMARK  161  A    between atoms: _397  and  _398
REMARK  162  A    between atoms: _401  and  _403
REMARK  163  A    between atoms: _403  and  _404
REMARK  164  A    between atoms: _403  and  _406
REMARK  165  A    between atoms: _406  and  _407
REMARK  166  A    between atoms: _407  and  _408
REMARK  167  A    between atoms: _411  and  _413
REMARK  168  A    between atoms: _413  and  _414
REMARK  169  A    between atoms: _413  and  _416
REMARK  170  A    between atoms: _419  and  _421
REMARK  171  A    between atoms: _421  and  _422
REMARK  172  A    between atoms: _421  and  _424
REMARK  173  A    between atoms: _424  and  _425
REMARK  174  A    between atoms: _428  and  _430
REMARK  175  A    between atoms: _430  and  _431
REMARK  176  A    between atoms: _433  and  _435
REMARK  177  A    between atoms: _435  and  _436
REMARK  178  A    between atoms: _435  and  _438
REMARK  179  A    between atoms: _441  and  _443
REMARK  180  A    between atoms: _443  and  _444
REMARK  181  A    between atoms: _446  and  _448
REMARK  182  A    between atoms: _448  and  _449
REMARK  183  A    between atoms: _448  and  _451
REMARK  184  A    between atoms: _451  and  _452
REMARK  185  A    between atoms: _455  and  _457
REMARK  186  A    between atoms: _457  and  _458
REMARK  187  A    between atoms: _457  and  _460
REMARK  188  A    between atoms: _460  and  _461
REMARK  189  A    between atoms: _466  and  _468
REMARK  190  A    between atoms: _468  and  _469
REMARK  191  A    between atoms: _468  and  _471
REMARK  192  A    between atoms: _474  and  _476
REMARK  193  A    between atoms: _476  and  _477
REMARK  194  A    between atoms: _476  and  _479
REMARK  195  A    between atoms: _479  and  _480
REMARK  196  A    between atoms: _480  and  _481
REMARK  197  A    between atoms: _486  and  _488
REMARK  198  A    between atoms: _488  and  _489
REMARK  199  A    between atoms: _493  and  _494
REMARK  200  A    between atoms: _499  and  _501
REMARK  201  A    between atoms: _501  and  _502
REMARK  202  A    between atoms: _501  and  _504
REMARK  203  A    between atoms: _504  and  _505
REMARK  204  A    between atoms: _505  and  _506
REMARK  205  A    between atoms: _509  and  _511
REMARK  206  A    between atoms: _511  and  _512
REMARK  207  A    between atoms: _511  and  _514
REMARK  208  A    between atoms: _517  and  _519
REMARK  209  A    between atoms: _519  and  _520
REMARK  210  A    between atoms: _519  and  _522
REMARK  211  A    between atoms: _522  and  _523
REMARK  212  A    between atoms: _527  and  _528
REMARK  213  A    between atoms: _533  and  _535
REMARK  214  A    between atoms: _535  and  _536
REMARK  215  A    between atoms: _535  and  _538
REMARK  216  A    between atoms: _538  and  _539
REMARK  217  A    between atoms: _542  and  _544
REMARK  218  A    between atoms: _544  and  _545
REMARK  219  A    between atoms: _548  and  _550
REMARK  220  A    between atoms: _550  and  _551
REMARK  221  A    between atoms: _550  and  _553
REMARK  222  A    between atoms: _553  and  _554
REMARK  223  A    between atoms: _557  and  _559
REMARK  224  A    between atoms: _559  and  _560
REMARK  225  A    between atoms: _559  and  _562
REMARK  226  A    between atoms: _562  and  _563
REMARK  227  A    between atoms: _565  and  _567
REMARK  228  A    between atoms: _567  and  _568
REMARK  229  A    between atoms: _570  and  _572
REMARK  230  A    between atoms: _572  and  _573
REMARK  231  A    between atoms: _572  and  _575
REMARK  232  A    between atoms: _575  and  _576
REMARK  233  A    between atoms: _579  and  _581
REMARK  234  A    between atoms: _581  and  _582
REMARK  235  A    between atoms: _581  and  _584
REMARK                            x       y       z     vdW  Elec       q    Type
REMARK                         _______ _______ _______ _____ _____    ______ ____
ROOT
ATOM      1  O   HOH     1       6.855  -7.477  14.675  0.00  0.00    +0.000 OA
ENDROOT
TORSDOF 0
REMARK  Name = ../refined-set-2016/4xtw/4xtw_pocket.pdb
REMARK  235 active torsions:
REMARK  status: ('A' for Active; 'I' for Inactive)
REMARK    1  A    between atoms: _1  and  _3
REMARK    2  A    between atoms: _3  and  _4
REMARK    3  A    between atoms: _3  and  _6
REMARK    4  A    between atoms: _6  and  _7
REMARK    5  A    between atoms: _10  and  _12
REMARK    6  A    between atoms: _12  and  _13
REMARK    7  A    between atoms: _15  and  _17
REMARK    8  A    between atoms: _17  and  _18
REMARK    9  A    between atoms: _17  and  _20
REMARK   10  A    between atoms: _20  and  _21
REMARK   11  A    between atoms: _23  and  _25
REMARK   12  A    between atoms: _25  and  _26
REMARK   13  A    between atoms: _25  and  _28
REMARK   14  A    between atoms: _28  and  _29
REMARK   15  A    between atoms: _32  and  _34
REMARK   16  A    between atoms: _34  and  _35
REMARK   17  A    between atoms: _34  and  _37
REMARK   18  A    between atoms: _37  and  _38
REMARK   19  A    between atoms: _43  and  _45
REMARK   20  A    between atoms: _45  and  _46
REMARK   21  A    between atoms: _49  and  _51
REMARK   22  A    between atoms: _51  and  _52
REMARK   23  A    between atoms: _51  and  _54
REMARK   24  A    between atoms: _54  and  _55
REMARK   25  A    between atoms: _58  and  _60
REMARK   26  A    between atoms: _60  and  _61
REMARK   27  A    between atoms: _60  and  _63
REMARK   28  A    between atoms: _63  and  _64
REMARK   29  A    between atoms: _67  and  _69
REMARK   30  A    between atoms: _69  and  _70
REMARK   31  A    between atoms: _69  and  _72
REMARK   32  A    between atoms: _72  and  _73
REMARK   33  A    between atoms: _76  and  _78
REMARK   34  A    between atoms: _78  and  _79
REMARK   35  A    between atoms: _82  and  _84
REMARK   36  A    between atoms: _84  and  _85
REMARK   37  A    between atoms: _84  and  _87
REMARK   38  A    between atoms: _87  and  _88
REMARK   39  A    between atoms: _88  and  _89
REMARK   40  A    between atoms: _94  and  _96
REMARK   41  A    between atoms: _96  and  _97
REMARK   42  A    between atoms: _96  and  _99
REMARK   43  A    between atoms: _99  and  _100
REMARK   44  A    between atoms: _103  and  _105
REMARK   45  A    between atoms: _105  and  _106
REMARK   46  A    between atoms: _109  and  _111
REMARK   47  A    between atoms: _111  and  _112
REMARK   48  A    between atoms: _114  and  _116
REMARK   49  A    between atoms: _116  and  _117
REMARK   50  A    between atoms: _116  and  _119
REMARK   51  A    between atoms: _119  and  _120
REMARK   52  A    between atoms: _120  and  _121
REMARK   53  A    between atoms: _121  and  _122
REMARK   54  A    between atoms: _131  and  _133
REMARK   55  A    between atoms: _133  and  _134
REMARK   56  A    between atoms: _136  and  _138
REMARK   57  A    between atoms: _138  and  _139
REMARK   58  A    between atoms: _138  and  _141
REMARK   59  A    between atoms: _141  and  _142
REMARK   60  A    between atoms: _142  and  _143
REMARK   61  A    between atoms: _143  and  _144
REMARK   62  A    between atoms: _153  and  _155
REMARK   63  A    between atoms: _155  and  _156
REMARK   64  A    between atoms: _155  and  _158
REMARK   65  A    between atoms: _158  and  _159
REMARK   66  A    between atoms: _164  and  _166
REMARK   67  A    between atoms: _166  and  _167
REMARK   68  A    between atoms: _169  and  _171
REMARK   69  A    between atoms: _171  and  _172
REMARK   70  A    between atoms: _171  and  _174
REMARK   71  A    between atoms: _174  and  _175
REMARK   72  A    between atoms: _175  and  _176
REMARK   73  A    between atoms: _176  and  _177
REMARK   74  A    between atoms: _186  and  _188
REMARK   75  A    between atoms: _188  and  _189
REMARK   76  A    between atoms: _191  and  _193
REMARK   77  A    between atoms: _193  and  _194
REMARK   78  A    between atoms: _193  and  _196
REMARK   79  A    between atoms: _196  and  _197
REMARK   80  A    between atoms: _207  and  _209
REMARK   81  A    between atoms: _209  and  _210
REMARK   82  A    between atoms: _213  and  _215
REMARK   83  A    between atoms: _215  and  _216
REMARK   84  A    between atoms: _219  and  _221
REMARK   85  A    between atoms: _221  and  _222
REMARK   86  A    between atoms: _221  and  _224
REMARK   87  A    between atoms: _224  and  _225
REMARK   88  A    between atoms: _228  and  _230
REMARK   89  A    between atoms: _230  and  _231
REMARK   90  A    between atoms: _230  and  _233
REMARK   91  A    between atoms: _233  and  _234
REMARK   92  A    between atoms: _234  and  _235
REMARK   93  A    between atoms: _240  and  _242
REMARK   94  A    between atoms: _242  and  _243
REMARK   95  A    between atoms: _242  and  _245
REMARK   96  A    between atoms: _245  and  _246
REMARK   97  A    between atoms: _249  and  _251
REMARK   98  A    between atoms: _251  and  _252
REMARK   99  A    between atoms: _251  and  _254
REMARK  100  A    between atoms: _254  and  _255
REMARK  101  A    between atoms: _258  and  _260
REMARK  102  A    between atoms: _260  and  _261
REMARK  103  A    between atoms: _260  and  _263
REMARK  104  A    between atoms: _263  and  _264
REMARK  105  A    between atoms: _267  and  _269
REMARK  106  A    between atoms: _269  and  _270
REMARK  107  A    between atoms: _269  and  _272
REMARK  108  A    between atoms: _272  and  _273
REMARK  109  A    between atoms: _275  and  _277
REMARK  110  A    between atoms: _277  and  _278
REMARK  111  A    between atoms: _277  and  _280
REMARK  112  A    between atoms: _283  and  _285
REMARK  113  A    between atoms: _285  and  _286
REMARK  114  A    between atoms: _285  and  _288
REMARK  115  A    between atoms: _288  and  _289
REMARK  116  A    between atoms: _291  and  _293
REMARK  117  A    between atoms: _293  and  _294
REMARK  118  A    between atoms: _293  and  _296
REMARK  119  A    between atoms: _296  and  _297
REMARK  120  A    between atoms: _297  and  _298
REMARK  121  A    between atoms: _298  and  _299
REMARK  122  A    between atoms: _299  and  _300
REMARK  123  A    between atoms: _305  and  _306
REMARK  124  A    between atoms: _311  and  _313
REMARK  125  A    between atoms: _313  and  _314
REMARK  126  A    between atoms: _313  and  _316
REMARK  127  A    between atoms: _316  and  _317
REMARK  128  A    between atoms: _322  and  _324
REMARK  129  A    between atoms: _324  and  _325
REMARK  130  A    between atoms: _324  and  _327
REMARK  131  A    between atoms: _327  and  _328
REMARK  132  A    between atoms: _331  and  _333
REMARK  133  A    between atoms: _333  and  _334
REMARK  134  A    between atoms: _333  and  _336
REMARK  135  A    between atoms: _339  and  _341
REMARK  136  A    between atoms: _341  and  _342
REMARK  137  A    between atoms: _344  and  _346
REMARK  138  A    between atoms: _346  and  _347
REMARK  139  A    between atoms: _346  and  _349
REMARK  140  A    between atoms: _349  and  _350
REMARK  141  A    between atoms: _350  and  _351
REMARK  142  A    between atoms: _351  and  _352
REMARK  143  A    between atoms: _352  and  _353
REMARK  144  A    between atoms: _357  and  _359
REMARK  145  A    between atoms: _359  and  _360
REMARK  146  A    between atoms: _359  and  _362
REMARK  147  A    between atoms: _362  and  _363
REMARK  148  A    between atoms: _366  and  _368
REMARK  149  A    between atoms: _368  and  _369
REMARK  150  A    between atoms: _372  and  _374
REMARK  151  A    between atoms: _374  and  _375
REMARK  152  A    between atoms: _377  and  _379
REMARK  153  A    between atoms: _379  and  _380
REMARK  154  A    between atoms: _379  and  _382
REMARK  155  A    between atoms: _382  and  _383
REMARK  156  A    between atoms: _386  and  _388
REMARK  157  A    between atoms: _388  and  _389
REMARK  158  A    between atoms: _388  and  _391
REMARK  159  A    between atoms: _391  and  _392
REMARK  160  A    between atoms: _395  and  _397
REMARK  161  A    between atoms: _397  and  _398
REMARK  162  A    between atoms: _401  and  _403
REMARK  163  A    between atoms: _403  and  _404
REMARK  164  A    between atoms: _403  and  _406
REMARK  165  A    between atoms: _406  and  _407
REMARK  166  A    between atoms: _407  and  _408
REMARK  167  A    between atoms: _411  and  _413
REMARK  168  A    between atoms: _413  and  _414
REMARK  169  A    between atoms: _413  and  _416
REMARK  170  A    between atoms: _419  and  _421
REMARK  171  A    between atoms: _421  and  _422
REMARK  172  A    between atoms: _421  and  _424
REMARK  173  A    between atoms: _424  and  _425
REMARK  174  A    between atoms: _428  and  _430
REMARK  175  A    between atoms: _430  and  _431
REMARK  176  A    between atoms: _433  and  _435
REMARK  177  A    between atoms: _435  and  _436
REMARK  178  A    between atoms: _435  and  _438
REMARK  179  A    between atoms: _441  and  _443
REMARK  180  A    between atoms: _443  and  _444
REMARK  181  A    between atoms: _446  and  _448
REMARK  182  A    between atoms: _448  and  _449
REMARK  183  A    between atoms: _448  and  _451
REMARK  184  A    between atoms: _451  and  _452
REMARK  185  A    between atoms: _455  and  _457
REMARK  186  A    between atoms: _457  and  _458
REMARK  187  A    between atoms: _457  and  _460
REMARK  188  A    between atoms: _460  and  _461
REMARK  189  A    between atoms: _466  and  _468
REMARK  190  A    between atoms: _468  and  _469
REMARK  191  A    between atoms: _468  and  _471
REMARK  192  A    between atoms: _474  and  _476
REMARK  193  A    between atoms: _476  and  _477
REMARK  194  A    between atoms: _476  and  _479
REMARK  195  A    between atoms: _479  and  _480
REMARK  196  A    between atoms: _480  and  _481
REMARK  197  A    between atoms: _486  and  _488
REMARK  198  A    between atoms: _488  and  _489
REMARK  199  A    between atoms: _493  and  _494
REMARK  200  A    between atoms: _499  and  _501
REMARK  201  A    between atoms: _501  and  _502
REMARK  202  A    between atoms: _501  and  _504
REMARK  203  A    between atoms: _504  and  _505
REMARK  204  A    between atoms: _505  and  _506
REMARK  205  A    between atoms: _509  and  _511
REMARK  206  A    between atoms: _511  and  _512
REMARK  207  A    between atoms: _511  and  _514
REMARK  208  A    between atoms: _517  and  _519
REMARK  209  A    between atoms: _519  and  _520
REMARK  210  A    between atoms: _519  and  _522
REMARK  211  A    between atoms: _522  and  _523
REMARK  212  A    between atoms: _527  and  _528
REMARK  213  A    between atoms: _533  and  _535
REMARK  214  A    between atoms: _535  and  _536
REMARK  215  A    between atoms: _535  and  _538
REMARK  216  A    between atoms: _538  and  _539
REMARK  217  A    between atoms: _542  and  _544
REMARK  218  A    between atoms: _544  and  _545
REMARK  219  A    between atoms: _548  and  _550
REMARK  220  A    between atoms: _550  and  _551
REMARK  221  A    between atoms: _550  and  _553
REMARK  222  A    between atoms: _553  and  _554
REMARK  223  A    between atoms: _557  and  _559
REMARK  224  A    between atoms: _559  and  _560
REMARK  225  A    between atoms: _559  and  _562
REMARK  226  A    between atoms: _562  and  _563
REMARK  227  A    between atoms: _565  and  _567
REMARK  228  A    between atoms: _567  and  _568
REMARK  229  A    between atoms: _570  and  _572
REMARK  230  A    between atoms: _572  and  _573
REMARK  231  A    between atoms: _572  and  _575
REMARK  232  A    between atoms: _575  and  _576
REMARK  233  A    between atoms: _579  and  _581
REMARK  234  A    between atoms: _581  and  _582
REMARK  235  A    between atoms: _581  and  _584
REMARK                            x       y       z     vdW  Elec       q    Type
REMARK                         _______ _______ _______ _____ _____    ______ ____
ROOT
ATOM      1  O   HOH     1     -11.294   2.265  15.887  0.00  0.00    +0.000 OA
ENDROOT
TORSDOF 0
