REMARK  Name = ../refined-set-2016/3s2v/3s2v_pocket.pdb
REMARK  223 active torsions:
REMARK  status: ('A' for Active; 'I' for Inactive)
REMARK    1  A    between atoms: _1  and  _3
REMARK    2  A    between atoms: _3  and  _4
REMARK    3  A    between atoms: _3  and  _6
REMARK    4  A    between atoms: _6  and  _7
REMARK    5  A    between atoms: _10  and  _12
REMARK    6  A    between atoms: _12  and  _13
REMARK    7  A    between atoms: _12  and  _15
REMARK    8  A    between atoms: _15  and  _16
REMARK    9  A    between atoms: _19  and  _21
REMARK   10  A    between atoms: _21  and  _22
REMARK   11  A    between atoms: _21  and  _24
REMARK   12  A    between atoms: _24  and  _25
REMARK   13  A    between atoms: _25  and  _26
REMARK   14  A    between atoms: _29  and  _31
REMARK   15  A    between atoms: _31  and  _32
REMARK   16  A    between atoms: _31  and  _34
REMARK   17  A    between atoms: _34  and  _35
REMARK   18  A    between atoms: _35  and  _36
REMARK   19  A    between atoms: _40  and  _41
REMARK   20  A    between atoms: _46  and  _48
REMARK   21  A    between atoms: _48  and  _49
REMARK   22  A    between atoms: _48  and  _51
REMARK   23  A    between atoms: _51  and  _52
REMARK   24  A    between atoms: _57  and  _58
REMARK   25  A    between atoms: _60  and  _62
REMARK   26  A    between atoms: _62  and  _63
REMARK   27  A    between atoms: _62  and  _65
REMARK   28  A    between atoms: _68  and  _70
REMARK   29  A    between atoms: _70  and  _71
REMARK   30  A    between atoms: _70  and  _73
REMARK   31  A    between atoms: _73  and  _74
REMARK   32  A    between atoms: _74  and  _75
REMARK   33  A    between atoms: _75  and  _76
REMARK   34  A    between atoms: _76  and  _77
REMARK   35  A    between atoms: _81  and  _83
REMARK   36  A    between atoms: _83  and  _84
REMARK   37  A    between atoms: _83  and  _86
REMARK   38  A    between atoms: _86  and  _87
REMARK   39  A    between atoms: _92  and  _93
REMARK   40  A    between atoms: _95  and  _97
REMARK   41  A    between atoms: _97  and  _98
REMARK   42  A    between atoms: _100  and  _102
REMARK   43  A    between atoms: _102  and  _103
REMARK   44  A    between atoms: _106  and  _108
REMARK   45  A    between atoms: _108  and  _109
REMARK   46  A    between atoms: _108  and  _111
REMARK   47  A    between atoms: _111  and  _112
REMARK   48  A    between atoms: _112  and  _113
REMARK   49  A    between atoms: _115  and  _117
REMARK   50  A    between atoms: _117  and  _118
REMARK   51  A    between atoms: _117  and  _120
REMARK   52  A    between atoms: _123  and  _125
REMARK   53  A    between atoms: _125  and  _126
REMARK   54  A    between atoms: _130  and  _131
REMARK   55  A    between atoms: _136  and  _138
REMARK   56  A    between atoms: _138  and  _139
REMARK   57  A    between atoms: _138  and  _141
REMARK   58  A    between atoms: _141  and  _142
REMARK   59  A    between atoms: _145  and  _147
REMARK   60  A    between atoms: _147  and  _148
REMARK   61  A    between atoms: _147  and  _150
REMARK   62  A    between atoms: _150  and  _151
REMARK   63  A    between atoms: _154  and  _156
REMARK   64  A    between atoms: _156  and  _157
REMARK   65  A    between atoms: _156  and  _159
REMARK   66  A    between atoms: _159  and  _160
REMARK   67  A    between atoms: _163  and  _165
REMARK   68  A    between atoms: _165  and  _166
REMARK   69  A    between atoms: _165  and  _168
REMARK   70  A    between atoms: _168  and  _169
REMARK   71  A    between atoms: _172  and  _174
REMARK   72  A    between atoms: _174  and  _175
REMARK   73  A    between atoms: _174  and  _177
REMARK   74  A    between atoms: _177  and  _178
REMARK   75  A    between atoms: _178  and  _179
REMARK   76  A    between atoms: _179  and  _180
REMARK   77  A    between atoms: _189  and  _191
REMARK   78  A    between atoms: _191  and  _192
REMARK   79  A    between atoms: _191  and  _194
REMARK   80  A    between atoms: _194  and  _195
REMARK   81  A    between atoms: _201  and  _203
REMARK   82  A    between atoms: _203  and  _204
REMARK   83  A    between atoms: _203  and  _206
REMARK   84  A    between atoms: _206  and  _207
REMARK   85  A    between atoms: _207  and  _208
REMARK   86  A    between atoms: _210  and  _212
REMARK   87  A    between atoms: _212  and  _213
REMARK   88  A    between atoms: _212  and  _215
REMARK   89  A    between atoms: _215  and  _216
REMARK   90  A    between atoms: _219  and  _221
REMARK   91  A    between atoms: _221  and  _222
REMARK   92  A    between atoms: _224  and  _226
REMARK   93  A    between atoms: _226  and  _227
REMARK   94  A    between atoms: _226  and  _229
REMARK   95  A    between atoms: _229  and  _230
REMARK   96  A    between atoms: _233  and  _235
REMARK   97  A    between atoms: _235  and  _236
REMARK   98  A    between atoms: _235  and  _238
REMARK   99  A    between atoms: _238  and  _239
REMARK  100  A    between atoms: _241  and  _243
REMARK  101  A    between atoms: _243  and  _244
REMARK  102  A    between atoms: _246  and  _248
REMARK  103  A    between atoms: _248  and  _249
REMARK  104  A    between atoms: _252  and  _254
REMARK  105  A    between atoms: _254  and  _255
REMARK  106  A    between atoms: _254  and  _257
REMARK  107  A    between atoms: _260  and  _262
REMARK  108  A    between atoms: _262  and  _263
REMARK  109  A    between atoms: _262  and  _265
REMARK  110  A    between atoms: _265  and  _266
REMARK  111  A    between atoms: _266  and  _267
REMARK  112  A    between atoms: _267  and  _268
REMARK  113  A    between atoms: _277  and  _279
REMARK  114  A    between atoms: _279  and  _280
REMARK  115  A    between atoms: _279  and  _282
REMARK  116  A    between atoms: _282  and  _283
REMARK  117  A    between atoms: _286  and  _288
REMARK  118  A    between atoms: _288  and  _289
REMARK  119  A    between atoms: _291  and  _293
REMARK  120  A    between atoms: _293  and  _294
REMARK  121  A    between atoms: _293  and  _296
REMARK  122  A    between atoms: _296  and  _297
REMARK  123  A    between atoms: _299  and  _301
REMARK  124  A    between atoms: _301  and  _302
REMARK  125  A    between atoms: _301  and  _304
REMARK  126  A    between atoms: _304  and  _305
REMARK  127  A    between atoms: _308  and  _310
REMARK  128  A    between atoms: _310  and  _311
REMARK  129  A    between atoms: _310  and  _313
REMARK  130  A    between atoms: _313  and  _314
REMARK  131  A    between atoms: _314  and  _315
REMARK  132  A    between atoms: _317  and  _319
REMARK  133  A    between atoms: _319  and  _320
REMARK  134  A    between atoms: _319  and  _322
REMARK  135  A    between atoms: _322  and  _323
REMARK  136  A    between atoms: _326  and  _328
REMARK  137  A    between atoms: _328  and  _329
REMARK  138  A    between atoms: _328  and  _331
REMARK  139  A    between atoms: _331  and  _332
REMARK  140  A    between atoms: _338  and  _340
REMARK  141  A    between atoms: _340  and  _341
REMARK  142  A    between atoms: _340  and  _343
REMARK  143  A    between atoms: _343  and  _344
REMARK  144  A    between atoms: _350  and  _352
REMARK  145  A    between atoms: _352  and  _353
REMARK  146  A    between atoms: _352  and  _355
REMARK  147  A    between atoms: _358  and  _360
REMARK  148  A    between atoms: _360  and  _361
REMARK  149  A    between atoms: _360  and  _363
REMARK  150  A    between atoms: _363  and  _364
REMARK  151  A    between atoms: _364  and  _365
REMARK  152  A    between atoms: _365  and  _366
REMARK  153  A    between atoms: _366  and  _367
REMARK  154  A    between atoms: _371  and  _373
REMARK  155  A    between atoms: _373  and  _374
REMARK  156  A    between atoms: _373  and  _376
REMARK  157  A    between atoms: _376  and  _377
REMARK  158  A    between atoms: _382  and  _384
REMARK  159  A    between atoms: _384  and  _385
REMARK  160  A    between atoms: _384  and  _387
REMARK  161  A    between atoms: _387  and  _388
REMARK  162  A    between atoms: _390  and  _392
REMARK  163  A    between atoms: _392  and  _393
REMARK  164  A    between atoms: _392  and  _395
REMARK  165  A    between atoms: _395  and  _396
REMARK  166  A    between atoms: _399  and  _401
REMARK  167  A    between atoms: _401  and  _402
REMARK  168  A    between atoms: _401  and  _404
REMARK  169  A    between atoms: _404  and  _405
REMARK  170  A    between atoms: _408  and  _410
REMARK  171  A    between atoms: _410  and  _411
REMARK  172  A    between atoms: _410  and  _413
REMARK  173  A    between atoms: _413  and  _414
REMARK  174  A    between atoms: _417  and  _419
REMARK  175  A    between atoms: _419  and  _420
REMARK  176  A    between atoms: _419  and  _422
REMARK  177  A    between atoms: _422  and  _423
REMARK  178  A    between atoms: _423  and  _424
REMARK  179  A    between atoms: _426  and  _428
REMARK  180  A    between atoms: _428  and  _429
REMARK  181  A    between atoms: _428  and  _431
REMARK  182  A    between atoms: _431  and  _432
REMARK  183  A    between atoms: _432  and  _433
REMARK  184  A    between atoms: _436  and  _438
REMARK  185  A    between atoms: _438  and  _439
REMARK  186  A    between atoms: _438  and  _441
REMARK  187  A    between atoms: _441  and  _442
REMARK  188  A    between atoms: _444  and  _446
REMARK  189  A    between atoms: _446  and  _447
REMARK  190  A    between atoms: _446  and  _449
REMARK  191  A    between atoms: _449  and  _450
REMARK  192  A    between atoms: _453  and  _455
REMARK  193  A    between atoms: _455  and  _456
REMARK  194  A    between atoms: _455  and  _458
REMARK  195  A    between atoms: _458  and  _459
REMARK  196  A    between atoms: _461  and  _463
REMARK  197  A    between atoms: _463  and  _464
REMARK  198  A    between atoms: _463  and  _466
REMARK  199  A    between atoms: _466  and  _467
REMARK  200  A    between atoms: _470  and  _472
REMARK  201  A    between atoms: _472  and  _473
REMARK  202  A    between atoms: _472  and  _475
REMARK  203  A    between atoms: _475  and  _476
REMARK  204  A    between atoms: _479  and  _481
REMARK  205  A    between atoms: _481  and  _482
REMARK  206  A    between atoms: _481  and  _484
REMARK  207  A    between atoms: _484  and  _485
REMARK  208  A    between atoms: _485  and  _486
REMARK  209  A    between atoms: _486  and  _487
REMARK  210  A    between atoms: _487  and  _488
REMARK  211  A    between atoms: _492  and  _494
REMARK  212  A    between atoms: _494  and  _495
REMARK  213  A    between atoms: _497  and  _499
REMARK  214  A    between atoms: _499  and  _500
REMARK  215  A    between atoms: _499  and  _502
REMARK  216  A    between atoms: _502  and  _503
REMARK  217  A    between atoms: _508  and  _509
REMARK  218  A    between atoms: _511  and  _513
REMARK  219  A    between atoms: _513  and  _514
REMARK  220  A    between atoms: _516  and  _518
REMARK  221  A    between atoms: _518  and  _519
REMARK  222  A    between atoms: _518  and  _521
REMARK  223  A    between atoms: _521  and  _522
REMARK                            x       y       z     vdW  Elec       q    Type
REMARK                         _______ _______ _______ _____ _____    ______ ____
ROOT
ATOM      1  CA  GLU A   4      40.163  58.274  -5.300  0.00  0.00    +0.149 C 
ENDROOT
BRANCH   1   2
ATOM      2  C   GLU A   4      40.117  56.966  -4.506  0.00  0.00    +0.244 C 
ATOM      3  O   GLU A   4      41.048  56.652  -3.770  0.00  0.00    -0.273 OA
ATOM      4  N   PRO A   5      39.047  56.175  -4.683  0.00  0.00    -0.272 N 
ATOM      5  CD  PRO A   5      38.931  54.830  -4.102  0.00  0.00    +0.094 C 
ATOM      6  CG  PRO A   5      38.155  54.071  -5.160  0.00  0.00    +0.024 C 
ATOM      7  CB  PRO A   5      37.703  55.102  -6.235  0.00  0.00    +0.031 C 
ATOM      8  CA  PRO A   5      37.914  56.449  -5.559  0.00  0.00    +0.152 C 
BRANCH   8   9
ATOM      9  C   PRO A   5      36.686  56.766  -4.725  0.00  0.00    +0.241 C 
ATOM     10  N   TYR A   6      36.891  57.339  -3.551  0.00  0.00    -0.297 N 
ATOM     11  H   TYR A   6      37.863  57.552  -3.247  0.00  0.00    +0.150 HD
ATOM     12  O   PRO A   5      35.572  56.483  -5.144  0.00  0.00    -0.273 OA
BRANCH  10  13
ATOM     13  CA  TYR A   6      35.779  57.675  -2.680  0.00  0.00    +0.153 C 
BRANCH  13  14
ATOM     14  C   TYR A   6      35.040  58.891  -3.201  0.00  0.00    +0.241 C 
ATOM     15  O   TYR A   6      33.832  58.857  -3.372  0.00  0.00    -0.273 OA
ATOM     16  N   VAL A   7      35.771  59.971  -3.443  0.00  0.00    -0.298 N 
ATOM     17  H   VAL A   7      36.795  59.947  -3.264  0.00  0.00    +0.150 HD
BRANCH  16  18
ATOM     18  CA  VAL A   7      35.162  61.190  -3.956  0.00  0.00    +0.137 C 
BRANCH  18  19
ATOM     19  CB  VAL A   7      35.017  62.286  -2.886  0.00  0.00    +0.026 C 
ATOM     20  CG2 VAL A   7      34.234  61.786  -1.679  0.00  0.00    +0.002 C 
ATOM     21  CG1 VAL A   7      34.345  63.500  -3.502  0.00  0.00    +0.002 C 
ENDBRANCH  18  19
BRANCH  18  22
ATOM     22  C   VAL A   7      35.991  61.758  -5.088  0.00  0.00    +0.227 C 
ATOM     23  O   VAL A   7      37.192  61.978  -4.941  0.00  0.00    -0.286 OA
ENDBRANCH  18  22
ENDBRANCH  16  18
ENDBRANCH  13  14
BRANCH  13  24
ATOM     24  CB  TYR A   6      36.275  57.924  -1.256  0.00  0.00    +0.055 C 
BRANCH  24  25
ATOM     25  CG  TYR A   6      37.152  56.808  -0.753  0.00  0.00    -0.020 A 
ATOM     26  CD2 TYR A   6      36.628  55.787   0.037  0.00  0.00    -0.001 A 
ATOM     27  CE2 TYR A   6      37.430  54.762   0.492  0.00  0.00    +0.036 A 
ATOM     28  CZ  TYR A   6      38.771  54.741   0.149  0.00  0.00    +0.134 A 
ATOM     29  CE1 TYR A   6      39.304  55.742  -0.641  0.00  0.00    +0.036 A 
ATOM     30  CD1 TYR A   6      38.505  56.759  -1.086  0.00  0.00    -0.001 A 
BRANCH  28  31
ATOM     31  OH  TYR A   6      39.583  53.719   0.603  0.00  0.00    -0.506 OA
ATOM     32  HH  TYR A   6      40.504  53.857   0.267  0.00  0.00    +0.292 HD
ENDBRANCH  28  31
ENDBRANCH  24  25
ENDBRANCH  13  24
ENDBRANCH  10  13
ENDBRANCH   8   9
ENDBRANCH   1   2
BRANCH   1  35
ATOM     33  C   GLU A   3      39.540  59.844  -3.537  0.00  0.00    +0.241 C 
ATOM     34  O   GLU A   3      38.443  59.280  -3.360  0.00  0.00    -0.273 OA
ATOM     35  N   GLU A   4      40.413  59.446  -4.459  0.00  0.00    -0.297 N 
ATOM     36  H   GLU A   4      41.296  59.981  -4.585  0.00  0.00    +0.150 HD
BRANCH  33  37
ATOM     37  CA  GLU A   3      39.969  61.034  -2.671  0.00  0.00    +0.149 C 
BRANCH  37  40
ATOM     38  C   LEU A   2      39.613  63.407  -2.457  0.00  0.00    +0.241 C 
ATOM     39  O   LEU A   2      40.757  63.552  -2.065  0.00  0.00    -0.273 OA
ATOM     40  N   GLU A   3      39.144  62.222  -2.841  0.00  0.00    -0.297 N 
ATOM     41  H   GLU A   3      38.195  62.145  -3.260  0.00  0.00    +0.150 HD
BRANCH  38  42
ATOM     42  CA  LEU A   2      38.678  64.603  -2.532  0.00  0.00    +0.149 C 
BRANCH  42  45
ATOM     43  C   ILE A   1      37.577  64.394  -0.377  0.00  0.00    +0.238 C 
ATOM     44  O   ILE A   1      37.140  63.281  -0.662  0.00  0.00    -0.274 OA
ATOM     45  N   LEU A   2      38.356  65.083  -1.195  0.00  0.00    -0.297 N 
ATOM     46  H   LEU A   2      38.749  65.991  -0.875  0.00  0.00    +0.150 HD
BRANCH  43  47
ATOM     47  CA  ILE A   1      37.235  65.063   0.954  0.00  0.00    +0.145 C 
BRANCH  47  48
ATOM     48  N   ILE A   1      35.901  64.676   1.406  0.00  0.00    -0.238 NA
ATOM     49  H   ILE A   1      35.555  63.720   1.188  0.00  0.00    +0.142 HD
ENDBRANCH  47  48
BRANCH  47  50
ATOM     50  CB  ILE A   1      38.278  64.675   2.016  0.00  0.00    +0.025 C 
ATOM     51  CG2 ILE A   1      38.274  63.168   2.229  0.00  0.00    +0.002 C 
BRANCH  50  52
ATOM     52  CG1 ILE A   1      39.675  65.185   1.651  0.00  0.00    +0.002 C 
ATOM     53  CD1 ILE A   1      40.699  64.939   2.745  0.00  0.00    +0.000 C 
ENDBRANCH  50  52
ENDBRANCH  47  50
ENDBRANCH  43  47
ENDBRANCH  42  45
BRANCH  42  54
ATOM     54  CB  LEU A   2      39.347  65.731  -3.312  0.00  0.00    +0.029 C 
BRANCH  54  55
ATOM     55  CG  LEU A   2      38.712  66.265  -4.596  0.00  0.00    +0.002 C 
ATOM     56  CD2 LEU A   2      38.784  67.775  -4.607  0.00  0.00    +0.000 C 
ATOM     57  CD1 LEU A   2      37.279  65.782  -4.800  0.00  0.00    +0.000 C 
ENDBRANCH  54  55
ENDBRANCH  42  54
ENDBRANCH  38  42
ENDBRANCH  37  40
BRANCH  37  58
ATOM     58  CB  GLU A   3      39.966  60.638  -1.189  0.00  0.00    +0.041 C 
BRANCH  58  59
ATOM     59  CG  GLU A   3      40.851  59.438  -0.841  0.00  0.00    +0.116 C 
BRANCH  59  60
ATOM     60  CD  GLU A   3      42.284  59.838  -0.513  0.00  0.00    +0.365 C 
ATOM     61  OE2 GLU A   3      42.468  60.613   0.453  0.00  0.00    -0.246 OA
ATOM     62  OE1 GLU A   3      43.220  59.381  -1.218  0.00  0.00    -0.246 OA
ENDBRANCH  59  60
ENDBRANCH  58  59
ENDBRANCH  37  58
ENDBRANCH  33  37
ENDBRANCH   1  35
BRANCH   1  63
ATOM     63  CB  GLU A   4      41.257  58.150  -6.347  0.00  0.00    +0.041 C 
BRANCH  63  64
ATOM     64  CG  GLU A   4      41.394  59.335  -7.268  0.00  0.00    +0.116 C 
BRANCH  64  65
ATOM     65  CD  GLU A   4      41.868  58.913  -8.647  0.00  0.00    +0.365 C 
ATOM     66  OE2 GLU A   4      42.654  57.939  -8.732  0.00  0.00    -0.246 OA
ATOM     67  OE1 GLU A   4      41.445  59.542  -9.645  0.00  0.00    -0.246 OA
ENDBRANCH  64  65
ENDBRANCH  63  64
ENDBRANCH   1  63
TORSDOF 27
REMARK  Name = ../refined-set-2016/3s2v/3s2v_pocket.pdb
REMARK  223 active torsions:
REMARK  status: ('A' for Active; 'I' for Inactive)
REMARK    1  A    between atoms: _1  and  _3
REMARK    2  A    between atoms: _3  and  _4
REMARK    3  A    between atoms: _3  and  _6
REMARK    4  A    between atoms: _6  and  _7
REMARK    5  A    between atoms: _10  and  _12
REMARK    6  A    between atoms: _12  and  _13
REMARK    7  A    between atoms: _12  and  _15
REMARK    8  A    between atoms: _15  and  _16
REMARK    9  A    between atoms: _19  and  _21
REMARK   10  A    between atoms: _21  and  _22
REMARK   11  A    between atoms: _21  and  _24
REMARK   12  A    between atoms: _24  and  _25
REMARK   13  A    between atoms: _25  and  _26
REMARK   14  A    between atoms: _29  and  _31
REMARK   15  A    between atoms: _31  and  _32
REMARK   16  A    between atoms: _31  and  _34
REMARK   17  A    between atoms: _34  and  _35
REMARK   18  A    between atoms: _35  and  _36
REMARK   19  A    between atoms: _40  and  _41
REMARK   20  A    between atoms: _46  and  _48
REMARK   21  A    between atoms: _48  and  _49
REMARK   22  A    between atoms: _48  and  _51
REMARK   23  A    between atoms: _51  and  _52
REMARK   24  A    between atoms: _57  and  _58
REMARK   25  A    between atoms: _60  and  _62
REMARK   26  A    between atoms: _62  and  _63
REMARK   27  A    between atoms: _62  and  _65
REMARK   28  A    between atoms: _68  and  _70
REMARK   29  A    between atoms: _70  and  _71
REMARK   30  A    between atoms: _70  and  _73
REMARK   31  A    between atoms: _73  and  _74
REMARK   32  A    between atoms: _74  and  _75
REMARK   33  A    between atoms: _75  and  _76
REMARK   34  A    between atoms: _76  and  _77
REMARK   35  A    between atoms: _81  and  _83
REMARK   36  A    between atoms: _83  and  _84
REMARK   37  A    between atoms: _83  and  _86
REMARK   38  A    between atoms: _86  and  _87
REMARK   39  A    between atoms: _92  and  _93
REMARK   40  A    between atoms: _95  and  _97
REMARK   41  A    between atoms: _97  and  _98
REMARK   42  A    between atoms: _100  and  _102
REMARK   43  A    between atoms: _102  and  _103
REMARK   44  A    between atoms: _106  and  _108
REMARK   45  A    between atoms: _108  and  _109
REMARK   46  A    between atoms: _108  and  _111
REMARK   47  A    between atoms: _111  and  _112
REMARK   48  A    between atoms: _112  and  _113
REMARK   49  A    between atoms: _115  and  _117
REMARK   50  A    between atoms: _117  and  _118
REMARK   51  A    between atoms: _117  and  _120
REMARK   52  A    between atoms: _123  and  _125
REMARK   53  A    between atoms: _125  and  _126
REMARK   54  A    between atoms: _130  and  _131
REMARK   55  A    between atoms: _136  and  _138
REMARK   56  A    between atoms: _138  and  _139
REMARK   57  A    between atoms: _138  and  _141
REMARK   58  A    between atoms: _141  and  _142
REMARK   59  A    between atoms: _145  and  _147
REMARK   60  A    between atoms: _147  and  _148
REMARK   61  A    between atoms: _147  and  _150
REMARK   62  A    between atoms: _150  and  _151
REMARK   63  A    between atoms: _154  and  _156
REMARK   64  A    between atoms: _156  and  _157
REMARK   65  A    between atoms: _156  and  _159
REMARK   66  A    between atoms: _159  and  _160
REMARK   67  A    between atoms: _163  and  _165
REMARK   68  A    between atoms: _165  and  _166
REMARK   69  A    between atoms: _165  and  _168
REMARK   70  A    between atoms: _168  and  _169
REMARK   71  A    between atoms: _172  and  _174
REMARK   72  A    between atoms: _174  and  _175
REMARK   73  A    between atoms: _174  and  _177
REMARK   74  A    between atoms: _177  and  _178
REMARK   75  A    between atoms: _178  and  _179
REMARK   76  A    between atoms: _179  and  _180
REMARK   77  A    between atoms: _189  and  _191
REMARK   78  A    between atoms: _191  and  _192
REMARK   79  A    between atoms: _191  and  _194
REMARK   80  A    between atoms: _194  and  _195
REMARK   81  A    between atoms: _201  and  _203
REMARK   82  A    between atoms: _203  and  _204
REMARK   83  A    between atoms: _203  and  _206
REMARK   84  A    between atoms: _206  and  _207
REMARK   85  A    between atoms: _207  and  _208
REMARK   86  A    between atoms: _210  and  _212
REMARK   87  A    between atoms: _212  and  _213
REMARK   88  A    between atoms: _212  and  _215
REMARK   89  A    between atoms: _215  and  _216
REMARK   90  A    between atoms: _219  and  _221
REMARK   91  A    between atoms: _221  and  _222
REMARK   92  A    between atoms: _224  and  _226
REMARK   93  A    between atoms: _226  and  _227
REMARK   94  A    between atoms: _226  and  _229
REMARK   95  A    between atoms: _229  and  _230
REMARK   96  A    between atoms: _233  and  _235
REMARK   97  A    between atoms: _235  and  _236
REMARK   98  A    between atoms: _235  and  _238
REMARK   99  A    between atoms: _238  and  _239
REMARK  100  A    between atoms: _241  and  _243
REMARK  101  A    between atoms: _243  and  _244
REMARK  102  A    between atoms: _246  and  _248
REMARK  103  A    between atoms: _248  and  _249
REMARK  104  A    between atoms: _252  and  _254
REMARK  105  A    between atoms: _254  and  _255
REMARK  106  A    between atoms: _254  and  _257
REMARK  107  A    between atoms: _260  and  _262
REMARK  108  A    between atoms: _262  and  _263
REMARK  109  A    between atoms: _262  and  _265
REMARK  110  A    between atoms: _265  and  _266
REMARK  111  A    between atoms: _266  and  _267
REMARK  112  A    between atoms: _267  and  _268
REMARK  113  A    between atoms: _277  and  _279
REMARK  114  A    between atoms: _279  and  _280
REMARK  115  A    between atoms: _279  and  _282
REMARK  116  A    between atoms: _282  and  _283
REMARK  117  A    between atoms: _286  and  _288
REMARK  118  A    between atoms: _288  and  _289
REMARK  119  A    between atoms: _291  and  _293
REMARK  120  A    between atoms: _293  and  _294
REMARK  121  A    between atoms: _293  and  _296
REMARK  122  A    between atoms: _296  and  _297
REMARK  123  A    between atoms: _299  and  _301
REMARK  124  A    between atoms: _301  and  _302
REMARK  125  A    between atoms: _301  and  _304
REMARK  126  A    between atoms: _304  and  _305
REMARK  127  A    between atoms: _308  and  _310
REMARK  128  A    between atoms: _310  and  _311
REMARK  129  A    between atoms: _310  and  _313
REMARK  130  A    between atoms: _313  and  _314
REMARK  131  A    between atoms: _314  and  _315
REMARK  132  A    between atoms: _317  and  _319
REMARK  133  A    between atoms: _319  and  _320
REMARK  134  A    between atoms: _319  and  _322
REMARK  135  A    between atoms: _322  and  _323
REMARK  136  A    between atoms: _326  and  _328
REMARK  137  A    between atoms: _328  and  _329
REMARK  138  A    between atoms: _328  and  _331
REMARK  139  A    between atoms: _331  and  _332
REMARK  140  A    between atoms: _338  and  _340
REMARK  141  A    between atoms: _340  and  _341
REMARK  142  A    between atoms: _340  and  _343
REMARK  143  A    between atoms: _343  and  _344
REMARK  144  A    between atoms: _350  and  _352
REMARK  145  A    between atoms: _352  and  _353
REMARK  146  A    between atoms: _352  and  _355
REMARK  147  A    between atoms: _358  and  _360
REMARK  148  A    between atoms: _360  and  _361
REMARK  149  A    between atoms: _360  and  _363
REMARK  150  A    between atoms: _363  and  _364
REMARK  151  A    between atoms: _364  and  _365
REMARK  152  A    between atoms: _365  and  _366
REMARK  153  A    between atoms: _366  and  _367
REMARK  154  A    between atoms: _371  and  _373
REMARK  155  A    between atoms: _373  and  _374
REMARK  156  A    between atoms: _373  and  _376
REMARK  157  A    between atoms: _376  and  _377
REMARK  158  A    between atoms: _382  and  _384
REMARK  159  A    between atoms: _384  and  _385
REMARK  160  A    between atoms: _384  and  _387
REMARK  161  A    between atoms: _387  and  _388
REMARK  162  A    between atoms: _390  and  _392
REMARK  163  A    between atoms: _392  and  _393
REMARK  164  A    between atoms: _392  and  _395
REMARK  165  A    between atoms: _395  and  _396
REMARK  166  A    between atoms: _399  and  _401
REMARK  167  A    between atoms: _401  and  _402
REMARK  168  A    between atoms: _401  and  _404
REMARK  169  A    between atoms: _404  and  _405
REMARK  170  A    between atoms: _408  and  _410
REMARK  171  A    between atoms: _410  and  _411
REMARK  172  A    between atoms: _410  and  _413
REMARK  173  A    between atoms: _413  and  _414
REMARK  174  A    between atoms: _417  and  _419
REMARK  175  A    between atoms: _419  and  _420
REMARK  176  A    between atoms: _419  and  _422
REMARK  177  A    between atoms: _422  and  _423
REMARK  178  A    between atoms: _423  and  _424
REMARK  179  A    between atoms: _426  and  _428
REMARK  180  A    between atoms: _428  and  _429
REMARK  181  A    between atoms: _428  and  _431
REMARK  182  A    between atoms: _431  and  _432
REMARK  183  A    between atoms: _432  and  _433
REMARK  184  A    between atoms: _436  and  _438
REMARK  185  A    between atoms: _438  and  _439
REMARK  186  A    between atoms: _438  and  _441
REMARK  187  A    between atoms: _441  and  _442
REMARK  188  A    between atoms: _444  and  _446
REMARK  189  A    between atoms: _446  and  _447
REMARK  190  A    between atoms: _446  and  _449
REMARK  191  A    between atoms: _449  and  _450
REMARK  192  A    between atoms: _453  and  _455
REMARK  193  A    between atoms: _455  and  _456
REMARK  194  A    between atoms: _455  and  _458
REMARK  195  A    between atoms: _458  and  _459
REMARK  196  A    between atoms: _461  and  _463
REMARK  197  A    between atoms: _463  and  _464
REMARK  198  A    between atoms: _463  and  _466
REMARK  199  A    between atoms: _466  and  _467
REMARK  200  A    between atoms: _470  and  _472
REMARK  201  A    between atoms: _472  and  _473
REMARK  202  A    between atoms: _472  and  _475
REMARK  203  A    between atoms: _475  and  _476
REMARK  204  A    between atoms: _479  and  _481
REMARK  205  A    between atoms: _481  and  _482
REMARK  206  A    between atoms: _481  and  _484
REMARK  207  A    between atoms: _484  and  _485
REMARK  208  A    between atoms: _485  and  _486
REMARK  209  A    between atoms: _486  and  _487
REMARK  210  A    between atoms: _487  and  _488
REMARK  211  A    between atoms: _492  and  _494
REMARK  212  A    between atoms: _494  and  _495
REMARK  213  A    between atoms: _497  and  _499
REMARK  214  A    between atoms: _499  and  _500
REMARK  215  A    between atoms: _499  and  _502
REMARK  216  A    between atoms: _502  and  _503
REMARK  217  A    between atoms: _508  and  _509
REMARK  218  A    between atoms: _511  and  _513
REMARK  219  A    between atoms: _513  and  _514
REMARK  220  A    between atoms: _516  and  _518
REMARK  221  A    between atoms: _518  and  _519
REMARK  222  A    between atoms: _518  and  _521
REMARK  223  A    between atoms: _521  and  _522
REMARK                            x       y       z     vdW  Elec       q    Type
REMARK                         _______ _______ _______ _____ _____    ______ ____
ROOT
ATOM      1  CA  TYR A   2      40.998  64.496   7.356  0.00  0.00    +0.153 C 
ENDROOT
BRANCH   1   3
ATOM      2  C   LYS A   1      41.397  66.656   6.278  0.00  0.00    +0.238 C 
ATOM      3  N   TYR A   2      41.860  65.489   6.714  0.00  0.00    -0.297 N 
ATOM      4  H   TYR A   2      42.871  65.274   6.595  0.00  0.00    +0.150 HD
ATOM      5  O   LYS A   1      40.216  66.969   6.315  0.00  0.00    -0.274 OA
BRANCH   2   6
ATOM      6  CA  LYS A   1      42.425  67.627   5.745  0.00  0.00    +0.145 C 
BRANCH   6   7
ATOM      7  N   LYS A   1      41.824  68.540   4.777  0.00  0.00    -0.238 NA
ATOM      8  H   LYS A   1      41.186  69.290   5.111  0.00  0.00    +0.142 HD
ENDBRANCH   6   7
BRANCH   6   9
ATOM      9  CB  LYS A   1      43.009  68.395   6.923  0.00  0.00    +0.026 C 
BRANCH   9  10
ATOM     10  CG  LYS A   1      44.008  69.437   6.550  0.00  0.00    -0.000 C 
BRANCH  10  11
ATOM     11  CD  LYS A   1      45.282  68.811   6.034  0.00  0.00    -0.024 C 
BRANCH  11  12
ATOM     12  CE  LYS A   1      46.303  69.880   5.696  0.00  0.00    -0.086 C 
BRANCH  12  13
ATOM     13  NZ  LYS A   1      46.320  70.924   6.762  0.00  0.00    +0.380 N 
ATOM     14  HZ1 LYS A   1      46.571  70.485   7.671  0.00  0.00    -0.089 HD
ATOM     15  HZ2 LYS A   1      45.378  71.360   6.834  0.00  0.00    -0.089 HD
ATOM     16  HZ3 LYS A   1      47.023  71.652   6.521  0.00  0.00    -0.089 HD
ENDBRANCH  12  13
ENDBRANCH  11  12
ENDBRANCH  10  11
ENDBRANCH   9  10
ENDBRANCH   6   9
ENDBRANCH   2   6
ENDBRANCH   1   3
BRANCH   1  17
ATOM     17  C   TYR A   2      40.598  64.924   8.761  0.00  0.00    +0.241 C 
ATOM     18  N   GLY A   3      41.597  65.285   9.558  0.00  0.00    -0.295 N 
ATOM     19  H   GLY A   3      42.572  65.256   9.197  0.00  0.00    +0.150 HD
ATOM     20  O   TYR A   2      39.414  64.940   9.112  0.00  0.00    -0.273 OA
BRANCH  18  21
ATOM     21  CA  GLY A   3      41.358  65.718  10.917  0.00  0.00    +0.176 C 
BRANCH  21  22
ATOM     22  C   GLY A   3      42.440  65.249  11.853  0.00  0.00    +0.243 C 
ATOM     23  N   ALA A   4      43.230  66.194  12.343  0.00  0.00    -0.298 N 
ATOM     24  H   ALA A   4      43.115  67.175  12.017  0.00  0.00    +0.150 HD
ATOM     25  O   GLY A   3      42.570  64.060  12.126  0.00  0.00    -0.273 OA
BRANCH  23  26
ATOM     26  CA  ALA A   4      44.251  65.885  13.325  0.00  0.00    +0.137 C 
ATOM     27  CB  ALA A   4      45.557  65.587  12.646  0.00  0.00    +0.030 C 
BRANCH  26  28
ATOM     28  C   ALA A   4      44.389  67.032  14.328  0.00  0.00    +0.227 C 
ATOM     29  O   ALA A   4      43.726  68.065  14.199  0.00  0.00    -0.286 OA
ENDBRANCH  26  28
ENDBRANCH  23  26
ENDBRANCH  21  22
ENDBRANCH  18  21
ENDBRANCH   1  17
BRANCH   1  30
ATOM     30  CB  TYR A   2      41.688  63.126   7.384  0.00  0.00    +0.055 C 
BRANCH  30  31
ATOM     31  CG  TYR A   2      41.560  62.426   6.064  0.00  0.00    -0.020 A 
ATOM     32  CD2 TYR A   2      40.491  61.583   5.818  0.00  0.00    -0.001 A 
ATOM     33  CE2 TYR A   2      40.337  60.961   4.599  0.00  0.00    +0.036 A 
ATOM     34  CZ  TYR A   2      41.250  61.177   3.593  0.00  0.00    +0.134 A 
ATOM     35  CE1 TYR A   2      42.332  62.023   3.805  0.00  0.00    +0.036 A 
ATOM     36  CD1 TYR A   2      42.472  62.653   5.039  0.00  0.00    -0.001 A 
BRANCH  34  37
ATOM     37  OH  TYR A   2      41.075  60.531   2.381  0.00  0.00    -0.506 OA
ATOM     38  HH  TYR A   2      41.858  59.953   2.200  0.00  0.00    +0.292 HD
ENDBRANCH  34  37
ENDBRANCH  30  31
ENDBRANCH   1  30
TORSDOF 16
REMARK  Name = ../refined-set-2016/3s2v/3s2v_pocket.pdb
REMARK  223 active torsions:
REMARK  status: ('A' for Active; 'I' for Inactive)
REMARK    1  A    between atoms: _1  and  _3
REMARK    2  A    between atoms: _3  and  _4
REMARK    3  A    between atoms: _3  and  _6
REMARK    4  A    between atoms: _6  and  _7
REMARK    5  A    between atoms: _10  and  _12
REMARK    6  A    between atoms: _12  and  _13
REMARK    7  A    between atoms: _12  and  _15
REMARK    8  A    between atoms: _15  and  _16
REMARK    9  A    between atoms: _19  and  _21
REMARK   10  A    between atoms: _21  and  _22
REMARK   11  A    between atoms: _21  and  _24
REMARK   12  A    between atoms: _24  and  _25
REMARK   13  A    between atoms: _25  and  _26
REMARK   14  A    between atoms: _29  and  _31
REMARK   15  A    between atoms: _31  and  _32
REMARK   16  A    between atoms: _31  and  _34
REMARK   17  A    between atoms: _34  and  _35
REMARK   18  A    between atoms: _35  and  _36
REMARK   19  A    between atoms: _40  and  _41
REMARK   20  A    between atoms: _46  and  _48
REMARK   21  A    between atoms: _48  and  _49
REMARK   22  A    between atoms: _48  and  _51
REMARK   23  A    between atoms: _51  and  _52
REMARK   24  A    between atoms: _57  and  _58
REMARK   25  A    between atoms: _60  and  _62
REMARK   26  A    between atoms: _62  and  _63
REMARK   27  A    between atoms: _62  and  _65
REMARK   28  A    between atoms: _68  and  _70
REMARK   29  A    between atoms: _70  and  _71
REMARK   30  A    between atoms: _70  and  _73
REMARK   31  A    between atoms: _73  and  _74
REMARK   32  A    between atoms: _74  and  _75
REMARK   33  A    between atoms: _75  and  _76
REMARK   34  A    between atoms: _76  and  _77
REMARK   35  A    between atoms: _81  and  _83
REMARK   36  A    between atoms: _83  and  _84
REMARK   37  A    between atoms: _83  and  _86
REMARK   38  A    between atoms: _86  and  _87
REMARK   39  A    between atoms: _92  and  _93
REMARK   40  A    between atoms: _95  and  _97
REMARK   41  A    between atoms: _97  and  _98
REMARK   42  A    between atoms: _100  and  _102
REMARK   43  A    between atoms: _102  and  _103
REMARK   44  A    between atoms: _106  and  _108
REMARK   45  A    between atoms: _108  and  _109
REMARK   46  A    between atoms: _108  and  _111
REMARK   47  A    between atoms: _111  and  _112
REMARK   48  A    between atoms: _112  and  _113
REMARK   49  A    between atoms: _115  and  _117
REMARK   50  A    between atoms: _117  and  _118
REMARK   51  A    between atoms: _117  and  _120
REMARK   52  A    between atoms: _123  and  _125
REMARK   53  A    between atoms: _125  and  _126
REMARK   54  A    between atoms: _130  and  _131
REMARK   55  A    between atoms: _136  and  _138
REMARK   56  A    between atoms: _138  and  _139
REMARK   57  A    between atoms: _138  and  _141
REMARK   58  A    between atoms: _141  and  _142
REMARK   59  A    between atoms: _145  and  _147
REMARK   60  A    between atoms: _147  and  _148
REMARK   61  A    between atoms: _147  and  _150
REMARK   62  A    between atoms: _150  and  _151
REMARK   63  A    between atoms: _154  and  _156
REMARK   64  A    between atoms: _156  and  _157
REMARK   65  A    between atoms: _156  and  _159
REMARK   66  A    between atoms: _159  and  _160
REMARK   67  A    between atoms: _163  and  _165
REMARK   68  A    between atoms: _165  and  _166
REMARK   69  A    between atoms: _165  and  _168
REMARK   70  A    between atoms: _168  and  _169
REMARK   71  A    between atoms: _172  and  _174
REMARK   72  A    between atoms: _174  and  _175
REMARK   73  A    between atoms: _174  and  _177
REMARK   74  A    between atoms: _177  and  _178
REMARK   75  A    between atoms: _178  and  _179
REMARK   76  A    between atoms: _179  and  _180
REMARK   77  A    between atoms: _189  and  _191
REMARK   78  A    between atoms: _191  and  _192
REMARK   79  A    between atoms: _191  and  _194
REMARK   80  A    between atoms: _194  and  _195
REMARK   81  A    between atoms: _201  and  _203
REMARK   82  A    between atoms: _203  and  _204
REMARK   83  A    between atoms: _203  and  _206
REMARK   84  A    between atoms: _206  and  _207
REMARK   85  A    between atoms: _207  and  _208
REMARK   86  A    between atoms: _210  and  _212
REMARK   87  A    between atoms: _212  and  _213
REMARK   88  A    between atoms: _212  and  _215
REMARK   89  A    between atoms: _215  and  _216
REMARK   90  A    between atoms: _219  and  _221
REMARK   91  A    between atoms: _221  and  _222
REMARK   92  A    between atoms: _224  and  _226
REMARK   93  A    between atoms: _226  and  _227
REMARK   94  A    between atoms: _226  and  _229
REMARK   95  A    between atoms: _229  and  _230
REMARK   96  A    between atoms: _233  and  _235
REMARK   97  A    between atoms: _235  and  _236
REMARK   98  A    between atoms: _235  and  _238
REMARK   99  A    between atoms: _238  and  _239
REMARK  100  A    between atoms: _241  and  _243
REMARK  101  A    between atoms: _243  and  _244
REMARK  102  A    between atoms: _246  and  _248
REMARK  103  A    between atoms: _248  and  _249
REMARK  104  A    between atoms: _252  and  _254
REMARK  105  A    between atoms: _254  and  _255
REMARK  106  A    between atoms: _254  and  _257
REMARK  107  A    between atoms: _260  and  _262
REMARK  108  A    between atoms: _262  and  _263
REMARK  109  A    between atoms: _262  and  _265
REMARK  110  A    between atoms: _265  and  _266
REMARK  111  A    between atoms: _266  and  _267
REMARK  112  A    between atoms: _267  and  _268
REMARK  113  A    between atoms: _277  and  _279
REMARK  114  A    between atoms: _279  and  _280
REMARK  115  A    between atoms: _279  and  _282
REMARK  116  A    between atoms: _282  and  _283
REMARK  117  A    between atoms: _286  and  _288
REMARK  118  A    between atoms: _288  and  _289
REMARK  119  A    between atoms: _291  and  _293
REMARK  120  A    between atoms: _293  and  _294
REMARK  121  A    between atoms: _293  and  _296
REMARK  122  A    between atoms: _296  and  _297
REMARK  123  A    between atoms: _299  and  _301
REMARK  124  A    between atoms: _301  and  _302
REMARK  125  A    between atoms: _301  and  _304
REMARK  126  A    between atoms: _304  and  _305
REMARK  127  A    between atoms: _308  and  _310
REMARK  128  A    between atoms: _310  and  _311
REMARK  129  A    between atoms: _310  and  _313
REMARK  130  A    between atoms: _313  and  _314
REMARK  131  A    between atoms: _314  and  _315
REMARK  132  A    between atoms: _317  and  _319
REMARK  133  A    between atoms: _319  and  _320
REMARK  134  A    between atoms: _319  and  _322
REMARK  135  A    between atoms: _322  and  _323
REMARK  136  A    between atoms: _326  and  _328
REMARK  137  A    between atoms: _328  and  _329
REMARK  138  A    between atoms: _328  and  _331
REMARK  139  A    between atoms: _331  and  _332
REMARK  140  A    between atoms: _338  and  _340
REMARK  141  A    between atoms: _340  and  _341
REMARK  142  A    between atoms: _340  and  _343
REMARK  143  A    between atoms: _343  and  _344
REMARK  144  A    between atoms: _350  and  _352
REMARK  145  A    between atoms: _352  and  _353
REMARK  146  A    between atoms: _352  and  _355
REMARK  147  A    between atoms: _358  and  _360
REMARK  148  A    between atoms: _360  and  _361
REMARK  149  A    between atoms: _360  and  _363
REMARK  150  A    between atoms: _363  and  _364
REMARK  151  A    between atoms: _364  and  _365
REMARK  152  A    between atoms: _365  and  _366
REMARK  153  A    between atoms: _366  and  _367
REMARK  154  A    between atoms: _371  and  _373
REMARK  155  A    between atoms: _373  and  _374
REMARK  156  A    between atoms: _373  and  _376
REMARK  157  A    between atoms: _376  and  _377
REMARK  158  A    between atoms: _382  and  _384
REMARK  159  A    between atoms: _384  and  _385
REMARK  160  A    between atoms: _384  and  _387
REMARK  161  A    between atoms: _387  and  _388
REMARK  162  A    between atoms: _390  and  _392
REMARK  163  A    between atoms: _392  and  _393
REMARK  164  A    between atoms: _392  and  _395
REMARK  165  A    between atoms: _395  and  _396
REMARK  166  A    between atoms: _399  and  _401
REMARK  167  A    between atoms: _401  and  _402
REMARK  168  A    between atoms: _401  and  _404
REMARK  169  A    between atoms: _404  and  _405
REMARK  170  A    between atoms: _408  and  _410
REMARK  171  A    between atoms: _410  and  _411
REMARK  172  A    between atoms: _410  and  _413
REMARK  173  A    between atoms: _413  and  _414
REMARK  174  A    between atoms: _417  and  _419
REMARK  175  A    between atoms: _419  and  _420
REMARK  176  A    between atoms: _419  and  _422
REMARK  177  A    between atoms: _422  and  _423
REMARK  178  A    between atoms: _423  and  _424
REMARK  179  A    between atoms: _426  and  _428
REMARK  180  A    between atoms: _428  and  _429
REMARK  181  A    between atoms: _428  and  _431
REMARK  182  A    between atoms: _431  and  _432
REMARK  183  A    between atoms: _432  and  _433
REMARK  184  A    between atoms: _436  and  _438
REMARK  185  A    between atoms: _438  and  _439
REMARK  186  A    between atoms: _438  and  _441
REMARK  187  A    between atoms: _441  and  _442
REMARK  188  A    between atoms: _444  and  _446
REMARK  189  A    between atoms: _446  and  _447
REMARK  190  A    between atoms: _446  and  _449
REMARK  191  A    between atoms: _449  and  _450
REMARK  192  A    between atoms: _453  and  _455
REMARK  193  A    between atoms: _455  and  _456
REMARK  194  A    between atoms: _455  and  _458
REMARK  195  A    between atoms: _458  and  _459
REMARK  196  A    between atoms: _461  and  _463
REMARK  197  A    between atoms: _463  and  _464
REMARK  198  A    between atoms: _463  and  _466
REMARK  199  A    between atoms: _466  and  _467
REMARK  200  A    between atoms: _470  and  _472
REMARK  201  A    between atoms: _472  and  _473
REMARK  202  A    between atoms: _472  and  _475
REMARK  203  A    between atoms: _475  and  _476
REMARK  204  A    between atoms: _479  and  _481
REMARK  205  A    between atoms: _481  and  _482
REMARK  206  A    between atoms: _481  and  _484
REMARK  207  A    between atoms: _484  and  _485
REMARK  208  A    between atoms: _485  and  _486
REMARK  209  A    between atoms: _486  and  _487
REMARK  210  A    between atoms: _487  and  _488
REMARK  211  A    between atoms: _492  and  _494
REMARK  212  A    between atoms: _494  and  _495
REMARK  213  A    between atoms: _497  and  _499
REMARK  214  A    between atoms: _499  and  _500
REMARK  215  A    between atoms: _499  and  _502
REMARK  216  A    between atoms: _502  and  _503
REMARK  217  A    between atoms: _508  and  _509
REMARK  218  A    between atoms: _511  and  _513
REMARK  219  A    between atoms: _513  and  _514
REMARK  220  A    between atoms: _516  and  _518
REMARK  221  A    between atoms: _518  and  _519
REMARK  222  A    between atoms: _518  and  _521
REMARK  223  A    between atoms: _521  and  _522
REMARK                            x       y       z     vdW  Elec       q    Type
REMARK                         _______ _______ _______ _____ _____    ______ ____
ROOT
ATOM      1  C   MET A   1      36.097  66.935  10.017  0.00  0.00    +0.238 C 
ATOM      2  N   VAL A   2      37.055  66.504  10.825  0.00  0.00    -0.298 N 
ATOM      3  H   VAL A   2      37.997  66.299  10.435  0.00  0.00    +0.150 HD
ATOM      4  O   MET A   1      34.958  67.204  10.406  0.00  0.00    -0.274 OA
ENDROOT
BRANCH   1   5
ATOM      5  CA  MET A   1      36.497  67.081   8.560  0.00  0.00    +0.146 C 
BRANCH   5   6
ATOM      6  N   MET A   1      37.904  67.412   8.484  0.00  0.00    -0.238 NA
ATOM      7  H   MET A   1      38.558  66.742   8.031  0.00  0.00    +0.142 HD
ENDBRANCH   5   6
BRANCH   5   8
ATOM      8  CB  MET A   1      36.227  65.781   7.808  0.00  0.00    +0.038 C 
BRANCH   8   9
ATOM      9  CG  MET A   1      36.539  65.851   6.329  0.00  0.00    +0.060 C 
BRANCH   9  10
ATOM     10  SD  MET A   1      36.069  64.325   5.486  0.00  0.00    -0.139 S 
ATOM     11  CE  MET A   1      37.489  63.258   5.798  0.00  0.00    +0.069 C 
ENDBRANCH   9  10
ENDBRANCH   8   9
ENDBRANCH   5   8
ENDBRANCH   1   5
BRANCH   2  12
ATOM     12  CA  VAL A   2      36.816  66.314  12.236  0.00  0.00    +0.137 C 
BRANCH  12  13
ATOM     13  CB  VAL A   2      38.033  65.702  12.936  0.00  0.00    +0.026 C 
ATOM     14  CG2 VAL A   2      37.834  65.717  14.442  0.00  0.00    +0.002 C 
ATOM     15  CG1 VAL A   2      38.258  64.291  12.444  0.00  0.00    +0.002 C 
ENDBRANCH  12  13
BRANCH  12  16
ATOM     16  C   VAL A   2      36.456  67.639  12.878  0.00  0.00    +0.227 C 
ATOM     17  O   VAL A   2      35.523  67.704  13.683  0.00  0.00    -0.286 OA
ENDBRANCH  12  16
ENDBRANCH   2  12
TORSDOF 8
REMARK  Name = ../refined-set-2016/3s2v/3s2v_pocket.pdb
REMARK  223 active torsions:
REMARK  status: ('A' for Active; 'I' for Inactive)
REMARK    1  A    between atoms: _1  and  _3
REMARK    2  A    between atoms: _3  and  _4
REMARK    3  A    between atoms: _3  and  _6
REMARK    4  A    between atoms: _6  and  _7
REMARK    5  A    between atoms: _10  and  _12
REMARK    6  A    between atoms: _12  and  _13
REMARK    7  A    between atoms: _12  and  _15
REMARK    8  A    between atoms: _15  and  _16
REMARK    9  A    between atoms: _19  and  _21
REMARK   10  A    between atoms: _21  and  _22
REMARK   11  A    between atoms: _21  and  _24
REMARK   12  A    between atoms: _24  and  _25
REMARK   13  A    between atoms: _25  and  _26
REMARK   14  A    between atoms: _29  and  _31
REMARK   15  A    between atoms: _31  and  _32
REMARK   16  A    between atoms: _31  and  _34
REMARK   17  A    between atoms: _34  and  _35
REMARK   18  A    between atoms: _35  and  _36
REMARK   19  A    between atoms: _40  and  _41
REMARK   20  A    between atoms: _46  and  _48
REMARK   21  A    between atoms: _48  and  _49
REMARK   22  A    between atoms: _48  and  _51
REMARK   23  A    between atoms: _51  and  _52
REMARK   24  A    between atoms: _57  and  _58
REMARK   25  A    between atoms: _60  and  _62
REMARK   26  A    between atoms: _62  and  _63
REMARK   27  A    between atoms: _62  and  _65
REMARK   28  A    between atoms: _68  and  _70
REMARK   29  A    between atoms: _70  and  _71
REMARK   30  A    between atoms: _70  and  _73
REMARK   31  A    between atoms: _73  and  _74
REMARK   32  A    between atoms: _74  and  _75
REMARK   33  A    between atoms: _75  and  _76
REMARK   34  A    between atoms: _76  and  _77
REMARK   35  A    between atoms: _81  and  _83
REMARK   36  A    between atoms: _83  and  _84
REMARK   37  A    between atoms: _83  and  _86
REMARK   38  A    between atoms: _86  and  _87
REMARK   39  A    between atoms: _92  and  _93
REMARK   40  A    between atoms: _95  and  _97
REMARK   41  A    between atoms: _97  and  _98
REMARK   42  A    between atoms: _100  and  _102
REMARK   43  A    between atoms: _102  and  _103
REMARK   44  A    between atoms: _106  and  _108
REMARK   45  A    between atoms: _108  and  _109
REMARK   46  A    between atoms: _108  and  _111
REMARK   47  A    between atoms: _111  and  _112
REMARK   48  A    between atoms: _112  and  _113
REMARK   49  A    between atoms: _115  and  _117
REMARK   50  A    between atoms: _117  and  _118
REMARK   51  A    between atoms: _117  and  _120
REMARK   52  A    between atoms: _123  and  _125
REMARK   53  A    between atoms: _125  and  _126
REMARK   54  A    between atoms: _130  and  _131
REMARK   55  A    between atoms: _136  and  _138
REMARK   56  A    between atoms: _138  and  _139
REMARK   57  A    between atoms: _138  and  _141
REMARK   58  A    between atoms: _141  and  _142
REMARK   59  A    between atoms: _145  and  _147
REMARK   60  A    between atoms: _147  and  _148
REMARK   61  A    between atoms: _147  and  _150
REMARK   62  A    between atoms: _150  and  _151
REMARK   63  A    between atoms: _154  and  _156
REMARK   64  A    between atoms: _156  and  _157
REMARK   65  A    between atoms: _156  and  _159
REMARK   66  A    between atoms: _159  and  _160
REMARK   67  A    between atoms: _163  and  _165
REMARK   68  A    between atoms: _165  and  _166
REMARK   69  A    between atoms: _165  and  _168
REMARK   70  A    between atoms: _168  and  _169
REMARK   71  A    between atoms: _172  and  _174
REMARK   72  A    between atoms: _174  and  _175
REMARK   73  A    between atoms: _174  and  _177
REMARK   74  A    between atoms: _177  and  _178
REMARK   75  A    between atoms: _178  and  _179
REMARK   76  A    between atoms: _179  and  _180
REMARK   77  A    between atoms: _189  and  _191
REMARK   78  A    between atoms: _191  and  _192
REMARK   79  A    between atoms: _191  and  _194
REMARK   80  A    between atoms: _194  and  _195
REMARK   81  A    between atoms: _201  and  _203
REMARK   82  A    between atoms: _203  and  _204
REMARK   83  A    between atoms: _203  and  _206
REMARK   84  A    between atoms: _206  and  _207
REMARK   85  A    between atoms: _207  and  _208
REMARK   86  A    between atoms: _210  and  _212
REMARK   87  A    between atoms: _212  and  _213
REMARK   88  A    between atoms: _212  and  _215
REMARK   89  A    between atoms: _215  and  _216
REMARK   90  A    between atoms: _219  and  _221
REMARK   91  A    between atoms: _221  and  _222
REMARK   92  A    between atoms: _224  and  _226
REMARK   93  A    between atoms: _226  and  _227
REMARK   94  A    between atoms: _226  and  _229
REMARK   95  A    between atoms: _229  and  _230
REMARK   96  A    between atoms: _233  and  _235
REMARK   97  A    between atoms: _235  and  _236
REMARK   98  A    between atoms: _235  and  _238
REMARK   99  A    between atoms: _238  and  _239
REMARK  100  A    between atoms: _241  and  _243
REMARK  101  A    between atoms: _243  and  _244
REMARK  102  A    between atoms: _246  and  _248
REMARK  103  A    between atoms: _248  and  _249
REMARK  104  A    between atoms: _252  and  _254
REMARK  105  A    between atoms: _254  and  _255
REMARK  106  A    between atoms: _254  and  _257
REMARK  107  A    between atoms: _260  and  _262
REMARK  108  A    between atoms: _262  and  _263
REMARK  109  A    between atoms: _262  and  _265
REMARK  110  A    between atoms: _265  and  _266
REMARK  111  A    between atoms: _266  and  _267
REMARK  112  A    between atoms: _267  and  _268
REMARK  113  A    between atoms: _277  and  _279
REMARK  114  A    between atoms: _279  and  _280
REMARK  115  A    between atoms: _279  and  _282
REMARK  116  A    between atoms: _282  and  _283
REMARK  117  A    between atoms: _286  and  _288
REMARK  118  A    between atoms: _288  and  _289
REMARK  119  A    between atoms: _291  and  _293
REMARK  120  A    between atoms: _293  and  _294
REMARK  121  A    between atoms: _293  and  _296
REMARK  122  A    between atoms: _296  and  _297
REMARK  123  A    between atoms: _299  and  _301
REMARK  124  A    between atoms: _301  and  _302
REMARK  125  A    between atoms: _301  and  _304
REMARK  126  A    between atoms: _304  and  _305
REMARK  127  A    between atoms: _308  and  _310
REMARK  128  A    between atoms: _310  and  _311
REMARK  129  A    between atoms: _310  and  _313
REMARK  130  A    between atoms: _313  and  _314
REMARK  131  A    between atoms: _314  and  _315
REMARK  132  A    between atoms: _317  and  _319
REMARK  133  A    between atoms: _319  and  _320
REMARK  134  A    between atoms: _319  and  _322
REMARK  135  A    between atoms: _322  and  _323
REMARK  136  A    between atoms: _326  and  _328
REMARK  137  A    between atoms: _328  and  _329
REMARK  138  A    between atoms: _328  and  _331
REMARK  139  A    between atoms: _331  and  _332
REMARK  140  A    between atoms: _338  and  _340
REMARK  141  A    between atoms: _340  and  _341
REMARK  142  A    between atoms: _340  and  _343
REMARK  143  A    between atoms: _343  and  _344
REMARK  144  A    between atoms: _350  and  _352
REMARK  145  A    between atoms: _352  and  _353
REMARK  146  A    between atoms: _352  and  _355
REMARK  147  A    between atoms: _358  and  _360
REMARK  148  A    between atoms: _360  and  _361
REMARK  149  A    between atoms: _360  and  _363
REMARK  150  A    between atoms: _363  and  _364
REMARK  151  A    between atoms: _364  and  _365
REMARK  152  A    between atoms: _365  and  _366
REMARK  153  A    between atoms: _366  and  _367
REMARK  154  A    between atoms: _371  and  _373
REMARK  155  A    between atoms: _373  and  _374
REMARK  156  A    between atoms: _373  and  _376
REMARK  157  A    between atoms: _376  and  _377
REMARK  158  A    between atoms: _382  and  _384
REMARK  159  A    between atoms: _384  and  _385
REMARK  160  A    between atoms: _384  and  _387
REMARK  161  A    between atoms: _387  and  _388
REMARK  162  A    between atoms: _390  and  _392
REMARK  163  A    between atoms: _392  and  _393
REMARK  164  A    between atoms: _392  and  _395
REMARK  165  A    between atoms: _395  and  _396
REMARK  166  A    between atoms: _399  and  _401
REMARK  167  A    between atoms: _401  and  _402
REMARK  168  A    between atoms: _401  and  _404
REMARK  169  A    between atoms: _404  and  _405
REMARK  170  A    between atoms: _408  and  _410
REMARK  171  A    between atoms: _410  and  _411
REMARK  172  A    between atoms: _410  and  _413
REMARK  173  A    between atoms: _413  and  _414
REMARK  174  A    between atoms: _417  and  _419
REMARK  175  A    between atoms: _419  and  _420
REMARK  176  A    between atoms: _419  and  _422
REMARK  177  A    between atoms: _422  and  _423
REMARK  178  A    between atoms: _423  and  _424
REMARK  179  A    between atoms: _426  and  _428
REMARK  180  A    between atoms: _428  and  _429
REMARK  181  A    between atoms: _428  and  _431
REMARK  182  A    between atoms: _431  and  _432
REMARK  183  A    between atoms: _432  and  _433
REMARK  184  A    between atoms: _436  and  _438
REMARK  185  A    between atoms: _438  and  _439
REMARK  186  A    between atoms: _438  and  _441
REMARK  187  A    between atoms: _441  and  _442
REMARK  188  A    between atoms: _444  and  _446
REMARK  189  A    between atoms: _446  and  _447
REMARK  190  A    between atoms: _446  and  _449
REMARK  191  A    between atoms: _449  and  _450
REMARK  192  A    between atoms: _453  and  _455
REMARK  193  A    between atoms: _455  and  _456
REMARK  194  A    between atoms: _455  and  _458
REMARK  195  A    between atoms: _458  and  _459
REMARK  196  A    between atoms: _461  and  _463
REMARK  197  A    between atoms: _463  and  _464
REMARK  198  A    between atoms: _463  and  _466
REMARK  199  A    between atoms: _466  and  _467
REMARK  200  A    between atoms: _470  and  _472
REMARK  201  A    between atoms: _472  and  _473
REMARK  202  A    between atoms: _472  and  _475
REMARK  203  A    between atoms: _475  and  _476
REMARK  204  A    between atoms: _479  and  _481
REMARK  205  A    between atoms: _481  and  _482
REMARK  206  A    between atoms: _481  and  _484
REMARK  207  A    between atoms: _484  and  _485
REMARK  208  A    between atoms: _485  and  _486
REMARK  209  A    between atoms: _486  and  _487
REMARK  210  A    between atoms: _487  and  _488
REMARK  211  A    between atoms: _492  and  _494
REMARK  212  A    between atoms: _494  and  _495
REMARK  213  A    between atoms: _497  and  _499
REMARK  214  A    between atoms: _499  and  _500
REMARK  215  A    between atoms: _499  and  _502
REMARK  216  A    between atoms: _502  and  _503
REMARK  217  A    between atoms: _508  and  _509
REMARK  218  A    between atoms: _511  and  _513
REMARK  219  A    between atoms: _513  and  _514
REMARK  220  A    between atoms: _516  and  _518
REMARK  221  A    between atoms: _518  and  _519
REMARK  222  A    between atoms: _518  and  _521
REMARK  223  A    between atoms: _521  and  _522
REMARK                            x       y       z     vdW  Elec       q    Type
REMARK                         _______ _______ _______ _____ _____    ______ ____
ROOT
ATOM      1  CA  THR A   4      39.602  56.066  10.213  0.00  0.00    +0.176 C 
ENDROOT
BRANCH   1   4
ATOM      2  C   LEU A   3      38.009  57.378   8.966  0.00  0.00    +0.241 C 
ATOM      3  O   LEU A   3      37.066  56.706   9.382  0.00  0.00    -0.273 OA
ATOM      4  N   THR A   4      39.261  57.147   9.318  0.00  0.00    -0.295 N 
ATOM      5  H   THR A   4      40.016  57.756   8.943  0.00  0.00    +0.150 HD
BRANCH   2   6
ATOM      6  CA  LEU A   3      37.790  58.531   7.995  0.00  0.00    +0.149 C 
BRANCH   6   8
ATOM      7  C   PRO A   2      38.091  57.730   5.716  0.00  0.00    +0.241 C 
ATOM      8  N   LEU A   3      37.291  58.033   6.728  0.00  0.00    -0.297 N 
ATOM      9  H   LEU A   3      36.265  57.909   6.609  0.00  0.00    +0.150 HD
ATOM     10  O   PRO A   2      39.315  57.849   5.788  0.00  0.00    -0.273 OA
BRANCH   7  14
ATOM     11  C   ALA A   1      35.363  58.658   4.354  0.00  0.00    +0.241 C 
ATOM     12  O   ALA A   1      34.864  58.125   5.362  0.00  0.00    -0.273 OA
ATOM     13  N   PRO A   2      36.551  58.278   3.825  0.00  0.00    -0.272 N 
ATOM     14  CA  PRO A   2      37.359  57.221   4.452  0.00  0.00    +0.152 C 
ATOM     15  CB  PRO A   2      38.328  56.808   3.333  0.00  0.00    +0.031 C 
ATOM     16  CG  PRO A   2      38.522  58.055   2.527  0.00  0.00    +0.024 C 
ATOM     17  CD  PRO A   2      37.238  58.883   2.665  0.00  0.00    +0.094 C 
BRANCH  11  18
ATOM     18  CA  ALA A   1      34.621  59.801   3.672  0.00  0.00    +0.145 C 
ATOM     19  CB  ALA A   1      35.284  61.131   3.984  0.00  0.00    +0.028 C 
BRANCH  18  20
ATOM     20  N   ALA A   1      33.309  59.784   4.261  0.00  0.00    -0.238 NA
ATOM     21  H   ALA A   1      33.139  59.161   5.077  0.00  0.00    +0.142 HD
ENDBRANCH  18  20
ENDBRANCH  11  18
ENDBRANCH   7  14
ENDBRANCH   6   8
BRANCH   6  22
ATOM     22  CB  LEU A   3      36.779  59.506   8.574  0.00  0.00    +0.029 C 
BRANCH  22  23
ATOM     23  CG  LEU A   3      37.220  60.437   9.692  0.00  0.00    +0.002 C 
ATOM     24  CD2 LEU A   3      36.026  61.313  10.079  0.00  0.00    +0.000 C 
ATOM     25  CD1 LEU A   3      38.397  61.282   9.249  0.00  0.00    +0.000 C 
ENDBRANCH  22  23
ENDBRANCH   6  22
ENDBRANCH   2   6
ENDBRANCH   1   4
BRANCH   1  26
ATOM     26  C   THR A   4      39.101  56.325  11.622  0.00  0.00    +0.243 C 
ATOM     27  O   THR A   4      39.379  57.368  12.226  0.00  0.00    -0.273 OA
ATOM     28  N   ILE A   5      38.367  55.353  12.140  0.00  0.00    -0.297 N 
ATOM     29  H   ILE A   5      38.109  54.538  11.547  0.00  0.00    +0.150 HD
BRANCH  28  30
ATOM     30  CA  ILE A   5      37.918  55.401  13.510  0.00  0.00    +0.149 C 
BRANCH  30  31
ATOM     31  C   ILE A   5      39.139  55.237  14.405  0.00  0.00    +0.241 C 
ATOM     32  N   THR A   6      39.395  56.233  15.246  0.00  0.00    -0.296 N 
ATOM     33  H   THR A   6      38.750  57.048  15.287  0.00  0.00    +0.150 HD
ATOM     34  O   ILE A   5      39.852  54.235  14.317  0.00  0.00    -0.273 OA
BRANCH  32  35
ATOM     35  CA  THR A   6      40.572  56.199  16.115  0.00  0.00    +0.164 C 
BRANCH  35  36
ATOM     36  CB  THR A   6      41.723  57.084  15.578  0.00  0.00    +0.136 C 
ATOM     37  CG2 THR A   6      42.141  56.643  14.176  0.00  0.00    +0.034 C 
BRANCH  36  38
ATOM     38  OG1 THR A   6      41.310  58.460  15.564  0.00  0.00    -0.382 OA
ATOM     39  HG1 THR A   6      42.049  59.022  15.220  0.00  0.00    +0.210 HD
ENDBRANCH  36  38
ENDBRANCH  35  36
BRANCH  35  40
ATOM     40  C   THR A   6      40.238  56.666  17.516  0.00  0.00    +0.229 C 
ATOM     41  O   THR A   6      39.247  57.362  17.730  0.00  0.00    -0.286 OA
ENDBRANCH  35  40
ENDBRANCH  32  35
ENDBRANCH  30  31
BRANCH  30  42
ATOM     42  CB  ILE A   5      36.941  54.264  13.784  0.00  0.00    +0.027 C 
ATOM     43  CG2 ILE A   5      36.372  54.404  15.172  0.00  0.00    +0.002 C 
BRANCH  42  44
ATOM     44  CG1 ILE A   5      35.847  54.243  12.714  0.00  0.00    +0.002 C 
ATOM     45  CD1 ILE A   5      34.914  53.077  12.825  0.00  0.00    +0.000 C 
ENDBRANCH  42  44
ENDBRANCH  30  42
ENDBRANCH  28  30
ENDBRANCH   1  26
BRANCH   1  46
ATOM     46  CB  THR A   4      41.116  55.846  10.276  0.00  0.00    +0.137 C 
ATOM     47  CG2 THR A   4      41.453  54.786  11.320  0.00  0.00    +0.034 C 
BRANCH  46  48
ATOM     48  OG1 THR A   4      41.583  55.415   9.002  0.00  0.00    -0.382 OA
ATOM     49  HG1 THR A   4      42.562  55.272   9.042  0.00  0.00    +0.210 HD
ENDBRANCH  46  48
ENDBRANCH   1  46
TORSDOF 19
REMARK  Name = ../refined-set-2016/3s2v/3s2v_pocket.pdb
REMARK  223 active torsions:
REMARK  status: ('A' for Active; 'I' for Inactive)
REMARK    1  A    between atoms: _1  and  _3
REMARK    2  A    between atoms: _3  and  _4
REMARK    3  A    between atoms: _3  and  _6
REMARK    4  A    between atoms: _6  and  _7
REMARK    5  A    between atoms: _10  and  _12
REMARK    6  A    between atoms: _12  and  _13
REMARK    7  A    between atoms: _12  and  _15
REMARK    8  A    between atoms: _15  and  _16
REMARK    9  A    between atoms: _19  and  _21
REMARK   10  A    between atoms: _21  and  _22
REMARK   11  A    between atoms: _21  and  _24
REMARK   12  A    between atoms: _24  and  _25
REMARK   13  A    between atoms: _25  and  _26
REMARK   14  A    between atoms: _29  and  _31
REMARK   15  A    between atoms: _31  and  _32
REMARK   16  A    between atoms: _31  and  _34
REMARK   17  A    between atoms: _34  and  _35
REMARK   18  A    between atoms: _35  and  _36
REMARK   19  A    between atoms: _40  and  _41
REMARK   20  A    between atoms: _46  and  _48
REMARK   21  A    between atoms: _48  and  _49
REMARK   22  A    between atoms: _48  and  _51
REMARK   23  A    between atoms: _51  and  _52
REMARK   24  A    between atoms: _57  and  _58
REMARK   25  A    between atoms: _60  and  _62
REMARK   26  A    between atoms: _62  and  _63
REMARK   27  A    between atoms: _62  and  _65
REMARK   28  A    between atoms: _68  and  _70
REMARK   29  A    between atoms: _70  and  _71
REMARK   30  A    between atoms: _70  and  _73
REMARK   31  A    between atoms: _73  and  _74
REMARK   32  A    between atoms: _74  and  _75
REMARK   33  A    between atoms: _75  and  _76
REMARK   34  A    between atoms: _76  and  _77
REMARK   35  A    between atoms: _81  and  _83
REMARK   36  A    between atoms: _83  and  _84
REMARK   37  A    between atoms: _83  and  _86
REMARK   38  A    between atoms: _86  and  _87
REMARK   39  A    between atoms: _92  and  _93
REMARK   40  A    between atoms: _95  and  _97
REMARK   41  A    between atoms: _97  and  _98
REMARK   42  A    between atoms: _100  and  _102
REMARK   43  A    between atoms: _102  and  _103
REMARK   44  A    between atoms: _106  and  _108
REMARK   45  A    between atoms: _108  and  _109
REMARK   46  A    between atoms: _108  and  _111
REMARK   47  A    between atoms: _111  and  _112
REMARK   48  A    between atoms: _112  and  _113
REMARK   49  A    between atoms: _115  and  _117
REMARK   50  A    between atoms: _117  and  _118
REMARK   51  A    between atoms: _117  and  _120
REMARK   52  A    between atoms: _123  and  _125
REMARK   53  A    between atoms: _125  and  _126
REMARK   54  A    between atoms: _130  and  _131
REMARK   55  A    between atoms: _136  and  _138
REMARK   56  A    between atoms: _138  and  _139
REMARK   57  A    between atoms: _138  and  _141
REMARK   58  A    between atoms: _141  and  _142
REMARK   59  A    between atoms: _145  and  _147
REMARK   60  A    between atoms: _147  and  _148
REMARK   61  A    between atoms: _147  and  _150
REMARK   62  A    between atoms: _150  and  _151
REMARK   63  A    between atoms: _154  and  _156
REMARK   64  A    between atoms: _156  and  _157
REMARK   65  A    between atoms: _156  and  _159
REMARK   66  A    between atoms: _159  and  _160
REMARK   67  A    between atoms: _163  and  _165
REMARK   68  A    between atoms: _165  and  _166
REMARK   69  A    between atoms: _165  and  _168
REMARK   70  A    between atoms: _168  and  _169
REMARK   71  A    between atoms: _172  and  _174
REMARK   72  A    between atoms: _174  and  _175
REMARK   73  A    between atoms: _174  and  _177
REMARK   74  A    between atoms: _177  and  _178
REMARK   75  A    between atoms: _178  and  _179
REMARK   76  A    between atoms: _179  and  _180
REMARK   77  A    between atoms: _189  and  _191
REMARK   78  A    between atoms: _191  and  _192
REMARK   79  A    between atoms: _191  and  _194
REMARK   80  A    between atoms: _194  and  _195
REMARK   81  A    between atoms: _201  and  _203
REMARK   82  A    between atoms: _203  and  _204
REMARK   83  A    between atoms: _203  and  _206
REMARK   84  A    between atoms: _206  and  _207
REMARK   85  A    between atoms: _207  and  _208
REMARK   86  A    between atoms: _210  and  _212
REMARK   87  A    between atoms: _212  and  _213
REMARK   88  A    between atoms: _212  and  _215
REMARK   89  A    between atoms: _215  and  _216
REMARK   90  A    between atoms: _219  and  _221
REMARK   91  A    between atoms: _221  and  _222
REMARK   92  A    between atoms: _224  and  _226
REMARK   93  A    between atoms: _226  and  _227
REMARK   94  A    between atoms: _226  and  _229
REMARK   95  A    between atoms: _229  and  _230
REMARK   96  A    between atoms: _233  and  _235
REMARK   97  A    between atoms: _235  and  _236
REMARK   98  A    between atoms: _235  and  _238
REMARK   99  A    between atoms: _238  and  _239
REMARK  100  A    between atoms: _241  and  _243
REMARK  101  A    between atoms: _243  and  _244
REMARK  102  A    between atoms: _246  and  _248
REMARK  103  A    between atoms: _248  and  _249
REMARK  104  A    between atoms: _252  and  _254
REMARK  105  A    between atoms: _254  and  _255
REMARK  106  A    between atoms: _254  and  _257
REMARK  107  A    between atoms: _260  and  _262
REMARK  108  A    between atoms: _262  and  _263
REMARK  109  A    between atoms: _262  and  _265
REMARK  110  A    between atoms: _265  and  _266
REMARK  111  A    between atoms: _266  and  _267
REMARK  112  A    between atoms: _267  and  _268
REMARK  113  A    between atoms: _277  and  _279
REMARK  114  A    between atoms: _279  and  _280
REMARK  115  A    between atoms: _279  and  _282
REMARK  116  A    between atoms: _282  and  _283
REMARK  117  A    between atoms: _286  and  _288
REMARK  118  A    between atoms: _288  and  _289
REMARK  119  A    between atoms: _291  and  _293
REMARK  120  A    between atoms: _293  and  _294
REMARK  121  A    between atoms: _293  and  _296
REMARK  122  A    between atoms: _296  and  _297
REMARK  123  A    between atoms: _299  and  _301
REMARK  124  A    between atoms: _301  and  _302
REMARK  125  A    between atoms: _301  and  _304
REMARK  126  A    between atoms: _304  and  _305
REMARK  127  A    between atoms: _308  and  _310
REMARK  128  A    between atoms: _310  and  _311
REMARK  129  A    between atoms: _310  and  _313
REMARK  130  A    between atoms: _313  and  _314
REMARK  131  A    between atoms: _314  and  _315
REMARK  132  A    between atoms: _317  and  _319
REMARK  133  A    between atoms: _319  and  _320
REMARK  134  A    between atoms: _319  and  _322
REMARK  135  A    between atoms: _322  and  _323
REMARK  136  A    between atoms: _326  and  _328
REMARK  137  A    between atoms: _328  and  _329
REMARK  138  A    between atoms: _328  and  _331
REMARK  139  A    between atoms: _331  and  _332
REMARK  140  A    between atoms: _338  and  _340
REMARK  141  A    between atoms: _340  and  _341
REMARK  142  A    between atoms: _340  and  _343
REMARK  143  A    between atoms: _343  and  _344
REMARK  144  A    between atoms: _350  and  _352
REMARK  145  A    between atoms: _352  and  _353
REMARK  146  A    between atoms: _352  and  _355
REMARK  147  A    between atoms: _358  and  _360
REMARK  148  A    between atoms: _360  and  _361
REMARK  149  A    between atoms: _360  and  _363
REMARK  150  A    between atoms: _363  and  _364
REMARK  151  A    between atoms: _364  and  _365
REMARK  152  A    between atoms: _365  and  _366
REMARK  153  A    between atoms: _366  and  _367
REMARK  154  A    between atoms: _371  and  _373
REMARK  155  A    between atoms: _373  and  _374
REMARK  156  A    between atoms: _373  and  _376
REMARK  157  A    between atoms: _376  and  _377
REMARK  158  A    between atoms: _382  and  _384
REMARK  159  A    between atoms: _384  and  _385
REMARK  160  A    between atoms: _384  and  _387
REMARK  161  A    between atoms: _387  and  _388
REMARK  162  A    between atoms: _390  and  _392
REMARK  163  A    between atoms: _392  and  _393
REMARK  164  A    between atoms: _392  and  _395
REMARK  165  A    between atoms: _395  and  _396
REMARK  166  A    between atoms: _399  and  _401
REMARK  167  A    between atoms: _401  and  _402
REMARK  168  A    between atoms: _401  and  _404
REMARK  169  A    between atoms: _404  and  _405
REMARK  170  A    between atoms: _408  and  _410
REMARK  171  A    between atoms: _410  and  _411
REMARK  172  A    between atoms: _410  and  _413
REMARK  173  A    between atoms: _413  and  _414
REMARK  174  A    between atoms: _417  and  _419
REMARK  175  A    between atoms: _419  and  _420
REMARK  176  A    between atoms: _419  and  _422
REMARK  177  A    between atoms: _422  and  _423
REMARK  178  A    between atoms: _423  and  _424
REMARK  179  A    between atoms: _426  and  _428
REMARK  180  A    between atoms: _428  and  _429
REMARK  181  A    between atoms: _428  and  _431
REMARK  182  A    between atoms: _431  and  _432
REMARK  183  A    between atoms: _432  and  _433
REMARK  184  A    between atoms: _436  and  _438
REMARK  185  A    between atoms: _438  and  _439
REMARK  186  A    between atoms: _438  and  _441
REMARK  187  A    between atoms: _441  and  _442
REMARK  188  A    between atoms: _444  and  _446
REMARK  189  A    between atoms: _446  and  _447
REMARK  190  A    between atoms: _446  and  _449
REMARK  191  A    between atoms: _449  and  _450
REMARK  192  A    between atoms: _453  and  _455
REMARK  193  A    between atoms: _455  and  _456
REMARK  194  A    between atoms: _455  and  _458
REMARK  195  A    between atoms: _458  and  _459
REMARK  196  A    between atoms: _461  and  _463
REMARK  197  A    between atoms: _463  and  _464
REMARK  198  A    between atoms: _463  and  _466
REMARK  199  A    between atoms: _466  and  _467
REMARK  200  A    between atoms: _470  and  _472
REMARK  201  A    between atoms: _472  and  _473
REMARK  202  A    between atoms: _472  and  _475
REMARK  203  A    between atoms: _475  and  _476
REMARK  204  A    between atoms: _479  and  _481
REMARK  205  A    between atoms: _481  and  _482
REMARK  206  A    between atoms: _481  and  _484
REMARK  207  A    between atoms: _484  and  _485
REMARK  208  A    between atoms: _485  and  _486
REMARK  209  A    between atoms: _486  and  _487
REMARK  210  A    between atoms: _487  and  _488
REMARK  211  A    between atoms: _492  and  _494
REMARK  212  A    between atoms: _494  and  _495
REMARK  213  A    between atoms: _497  and  _499
REMARK  214  A    between atoms: _499  and  _500
REMARK  215  A    between atoms: _499  and  _502
REMARK  216  A    between atoms: _502  and  _503
REMARK  217  A    between atoms: _508  and  _509
REMARK  218  A    between atoms: _511  and  _513
REMARK  219  A    between atoms: _513  and  _514
REMARK  220  A    between atoms: _516  and  _518
REMARK  221  A    between atoms: _518  and  _519
REMARK  222  A    between atoms: _518  and  _521
REMARK  223  A    between atoms: _521  and  _522
REMARK                            x       y       z     vdW  Elec       q    Type
REMARK                         _______ _______ _______ _____ _____    ______ ____
ROOT
ATOM      1  NE  ARG A   1      40.925  61.353  12.566  0.00  0.00    -0.265 N 
ATOM      2  HE  ARG A   1      41.339  62.266  12.844  0.00  0.00    +0.259 HD
ATOM      3  CZ  ARG A   1      41.314  60.819  11.416  0.00  0.00    +0.342 C 
ATOM      4  NH2 ARG A   1      40.820  59.653  11.030  0.00  0.00    -0.292 N 
ATOM      5 HH21 ARG A   1      40.128  59.158  11.628  0.00  0.00    +0.255 HD
ATOM      6 HH22 ARG A   1      41.124  59.232  10.129  0.00  0.00    +0.255 HD
ATOM      7  NH1 ARG A   1      42.205  61.447  10.660  0.00  0.00    -0.292 N 
ATOM      8 HH11 ARG A   1      42.599  62.359  10.969  0.00  0.00    +0.255 HD
ATOM      9 HH12 ARG A   1      42.510  61.028   9.758  0.00  0.00    +0.255 HD
ENDROOT
BRANCH   1  10
ATOM     10  CD  ARG A   1      39.955  60.743  13.465  0.00  0.00    +0.174 C 
BRANCH  10  11
ATOM     11  CG  ARG A   1      40.018  61.331  14.861  0.00  0.00    +0.045 C 
BRANCH  11  12
ATOM     12  CB  ARG A   1      39.028  60.625  15.761  0.00  0.00    +0.029 C 
BRANCH  12  13
ATOM     13  CA  ARG A   1      39.039  61.126  17.208  0.00  0.00    +0.133 C 
BRANCH  13  14
ATOM     14  N   ARG A   1      40.107  60.512  17.981  0.00  0.00    -0.239 NA
ATOM     15  H   ARG A   1      40.552  59.631  17.654  0.00  0.00    +0.142 HD
ENDBRANCH  13  14
BRANCH  13  16
ATOM     16  C   ARG A   1      37.716  60.847  17.881  0.00  0.00    +0.224 C 
ATOM     17  O   ARG A   1      36.878  61.735  18.008  0.00  0.00    -0.287 OA
ENDBRANCH  13  16
ENDBRANCH  12  13
ENDBRANCH  11  12
ENDBRANCH  10  11
ENDBRANCH   1  10
TORSDOF 6
REMARK  Name = ../refined-set-2016/3s2v/3s2v_pocket.pdb
REMARK  223 active torsions:
REMARK  status: ('A' for Active; 'I' for Inactive)
REMARK    1  A    between atoms: _1  and  _3
REMARK    2  A    between atoms: _3  and  _4
REMARK    3  A    between atoms: _3  and  _6
REMARK    4  A    between atoms: _6  and  _7
REMARK    5  A    between atoms: _10  and  _12
REMARK    6  A    between atoms: _12  and  _13
REMARK    7  A    between atoms: _12  and  _15
REMARK    8  A    between atoms: _15  and  _16
REMARK    9  A    between atoms: _19  and  _21
REMARK   10  A    between atoms: _21  and  _22
REMARK   11  A    between atoms: _21  and  _24
REMARK   12  A    between atoms: _24  and  _25
REMARK   13  A    between atoms: _25  and  _26
REMARK   14  A    between atoms: _29  and  _31
REMARK   15  A    between atoms: _31  and  _32
REMARK   16  A    between atoms: _31  and  _34
REMARK   17  A    between atoms: _34  and  _35
REMARK   18  A    between atoms: _35  and  _36
REMARK   19  A    between atoms: _40  and  _41
REMARK   20  A    between atoms: _46  and  _48
REMARK   21  A    between atoms: _48  and  _49
REMARK   22  A    between atoms: _48  and  _51
REMARK   23  A    between atoms: _51  and  _52
REMARK   24  A    between atoms: _57  and  _58
REMARK   25  A    between atoms: _60  and  _62
REMARK   26  A    between atoms: _62  and  _63
REMARK   27  A    between atoms: _62  and  _65
REMARK   28  A    between atoms: _68  and  _70
REMARK   29  A    between atoms: _70  and  _71
REMARK   30  A    between atoms: _70  and  _73
REMARK   31  A    between atoms: _73  and  _74
REMARK   32  A    between atoms: _74  and  _75
REMARK   33  A    between atoms: _75  and  _76
REMARK   34  A    between atoms: _76  and  _77
REMARK   35  A    between atoms: _81  and  _83
REMARK   36  A    between atoms: _83  and  _84
REMARK   37  A    between atoms: _83  and  _86
REMARK   38  A    between atoms: _86  and  _87
REMARK   39  A    between atoms: _92  and  _93
REMARK   40  A    between atoms: _95  and  _97
REMARK   41  A    between atoms: _97  and  _98
REMARK   42  A    between atoms: _100  and  _102
REMARK   43  A    between atoms: _102  and  _103
REMARK   44  A    between atoms: _106  and  _108
REMARK   45  A    between atoms: _108  and  _109
REMARK   46  A    between atoms: _108  and  _111
REMARK   47  A    between atoms: _111  and  _112
REMARK   48  A    between atoms: _112  and  _113
REMARK   49  A    between atoms: _115  and  _117
REMARK   50  A    between atoms: _117  and  _118
REMARK   51  A    between atoms: _117  and  _120
REMARK   52  A    between atoms: _123  and  _125
REMARK   53  A    between atoms: _125  and  _126
REMARK   54  A    between atoms: _130  and  _131
REMARK   55  A    between atoms: _136  and  _138
REMARK   56  A    between atoms: _138  and  _139
REMARK   57  A    between atoms: _138  and  _141
REMARK   58  A    between atoms: _141  and  _142
REMARK   59  A    between atoms: _145  and  _147
REMARK   60  A    between atoms: _147  and  _148
REMARK   61  A    between atoms: _147  and  _150
REMARK   62  A    between atoms: _150  and  _151
REMARK   63  A    between atoms: _154  and  _156
REMARK   64  A    between atoms: _156  and  _157
REMARK   65  A    between atoms: _156  and  _159
REMARK   66  A    between atoms: _159  and  _160
REMARK   67  A    between atoms: _163  and  _165
REMARK   68  A    between atoms: _165  and  _166
REMARK   69  A    between atoms: _165  and  _168
REMARK   70  A    between atoms: _168  and  _169
REMARK   71  A    between atoms: _172  and  _174
REMARK   72  A    between atoms: _174  and  _175
REMARK   73  A    between atoms: _174  and  _177
REMARK   74  A    between atoms: _177  and  _178
REMARK   75  A    between atoms: _178  and  _179
REMARK   76  A    between atoms: _179  and  _180
REMARK   77  A    between atoms: _189  and  _191
REMARK   78  A    between atoms: _191  and  _192
REMARK   79  A    between atoms: _191  and  _194
REMARK   80  A    between atoms: _194  and  _195
REMARK   81  A    between atoms: _201  and  _203
REMARK   82  A    between atoms: _203  and  _204
REMARK   83  A    between atoms: _203  and  _206
REMARK   84  A    between atoms: _206  and  _207
REMARK   85  A    between atoms: _207  and  _208
REMARK   86  A    between atoms: _210  and  _212
REMARK   87  A    between atoms: _212  and  _213
REMARK   88  A    between atoms: _212  and  _215
REMARK   89  A    between atoms: _215  and  _216
REMARK   90  A    between atoms: _219  and  _221
REMARK   91  A    between atoms: _221  and  _222
REMARK   92  A    between atoms: _224  and  _226
REMARK   93  A    between atoms: _226  and  _227
REMARK   94  A    between atoms: _226  and  _229
REMARK   95  A    between atoms: _229  and  _230
REMARK   96  A    between atoms: _233  and  _235
REMARK   97  A    between atoms: _235  and  _236
REMARK   98  A    between atoms: _235  and  _238
REMARK   99  A    between atoms: _238  and  _239
REMARK  100  A    between atoms: _241  and  _243
REMARK  101  A    between atoms: _243  and  _244
REMARK  102  A    between atoms: _246  and  _248
REMARK  103  A    between atoms: _248  and  _249
REMARK  104  A    between atoms: _252  and  _254
REMARK  105  A    between atoms: _254  and  _255
REMARK  106  A    between atoms: _254  and  _257
REMARK  107  A    between atoms: _260  and  _262
REMARK  108  A    between atoms: _262  and  _263
REMARK  109  A    between atoms: _262  and  _265
REMARK  110  A    between atoms: _265  and  _266
REMARK  111  A    between atoms: _266  and  _267
REMARK  112  A    between atoms: _267  and  _268
REMARK  113  A    between atoms: _277  and  _279
REMARK  114  A    between atoms: _279  and  _280
REMARK  115  A    between atoms: _279  and  _282
REMARK  116  A    between atoms: _282  and  _283
REMARK  117  A    between atoms: _286  and  _288
REMARK  118  A    between atoms: _288  and  _289
REMARK  119  A    between atoms: _291  and  _293
REMARK  120  A    between atoms: _293  and  _294
REMARK  121  A    between atoms: _293  and  _296
REMARK  122  A    between atoms: _296  and  _297
REMARK  123  A    between atoms: _299  and  _301
REMARK  124  A    between atoms: _301  and  _302
REMARK  125  A    between atoms: _301  and  _304
REMARK  126  A    between atoms: _304  and  _305
REMARK  127  A    between atoms: _308  and  _310
REMARK  128  A    between atoms: _310  and  _311
REMARK  129  A    between atoms: _310  and  _313
REMARK  130  A    between atoms: _313  and  _314
REMARK  131  A    between atoms: _314  and  _315
REMARK  132  A    between atoms: _317  and  _319
REMARK  133  A    between atoms: _319  and  _320
REMARK  134  A    between atoms: _319  and  _322
REMARK  135  A    between atoms: _322  and  _323
REMARK  136  A    between atoms: _326  and  _328
REMARK  137  A    between atoms: _328  and  _329
REMARK  138  A    between atoms: _328  and  _331
REMARK  139  A    between atoms: _331  and  _332
REMARK  140  A    between atoms: _338  and  _340
REMARK  141  A    between atoms: _340  and  _341
REMARK  142  A    between atoms: _340  and  _343
REMARK  143  A    between atoms: _343  and  _344
REMARK  144  A    between atoms: _350  and  _352
REMARK  145  A    between atoms: _352  and  _353
REMARK  146  A    between atoms: _352  and  _355
REMARK  147  A    between atoms: _358  and  _360
REMARK  148  A    between atoms: _360  and  _361
REMARK  149  A    between atoms: _360  and  _363
REMARK  150  A    between atoms: _363  and  _364
REMARK  151  A    between atoms: _364  and  _365
REMARK  152  A    between atoms: _365  and  _366
REMARK  153  A    between atoms: _366  and  _367
REMARK  154  A    between atoms: _371  and  _373
REMARK  155  A    between atoms: _373  and  _374
REMARK  156  A    between atoms: _373  and  _376
REMARK  157  A    between atoms: _376  and  _377
REMARK  158  A    between atoms: _382  and  _384
REMARK  159  A    between atoms: _384  and  _385
REMARK  160  A    between atoms: _384  and  _387
REMARK  161  A    between atoms: _387  and  _388
REMARK  162  A    between atoms: _390  and  _392
REMARK  163  A    between atoms: _392  and  _393
REMARK  164  A    between atoms: _392  and  _395
REMARK  165  A    between atoms: _395  and  _396
REMARK  166  A    between atoms: _399  and  _401
REMARK  167  A    between atoms: _401  and  _402
REMARK  168  A    between atoms: _401  and  _404
REMARK  169  A    between atoms: _404  and  _405
REMARK  170  A    between atoms: _408  and  _410
REMARK  171  A    between atoms: _410  and  _411
REMARK  172  A    between atoms: _410  and  _413
REMARK  173  A    between atoms: _413  and  _414
REMARK  174  A    between atoms: _417  and  _419
REMARK  175  A    between atoms: _419  and  _420
REMARK  176  A    between atoms: _419  and  _422
REMARK  177  A    between atoms: _422  and  _423
REMARK  178  A    between atoms: _423  and  _424
REMARK  179  A    between atoms: _426  and  _428
REMARK  180  A    between atoms: _428  and  _429
REMARK  181  A    between atoms: _428  and  _431
REMARK  182  A    between atoms: _431  and  _432
REMARK  183  A    between atoms: _432  and  _433
REMARK  184  A    between atoms: _436  and  _438
REMARK  185  A    between atoms: _438  and  _439
REMARK  186  A    between atoms: _438  and  _441
REMARK  187  A    between atoms: _441  and  _442
REMARK  188  A    between atoms: _444  and  _446
REMARK  189  A    between atoms: _446  and  _447
REMARK  190  A    between atoms: _446  and  _449
REMARK  191  A    between atoms: _449  and  _450
REMARK  192  A    between atoms: _453  and  _455
REMARK  193  A    between atoms: _455  and  _456
REMARK  194  A    between atoms: _455  and  _458
REMARK  195  A    between atoms: _458  and  _459
REMARK  196  A    between atoms: _461  and  _463
REMARK  197  A    between atoms: _463  and  _464
REMARK  198  A    between atoms: _463  and  _466
REMARK  199  A    between atoms: _466  and  _467
REMARK  200  A    between atoms: _470  and  _472
REMARK  201  A    between atoms: _472  and  _473
REMARK  202  A    between atoms: _472  and  _475
REMARK  203  A    between atoms: _475  and  _476
REMARK  204  A    between atoms: _479  and  _481
REMARK  205  A    between atoms: _481  and  _482
REMARK  206  A    between atoms: _481  and  _484
REMARK  207  A    between atoms: _484  and  _485
REMARK  208  A    between atoms: _485  and  _486
REMARK  209  A    between atoms: _486  and  _487
REMARK  210  A    between atoms: _487  and  _488
REMARK  211  A    between atoms: _492  and  _494
REMARK  212  A    between atoms: _494  and  _495
REMARK  213  A    between atoms: _497  and  _499
REMARK  214  A    between atoms: _499  and  _500
REMARK  215  A    between atoms: _499  and  _502
REMARK  216  A    between atoms: _502  and  _503
REMARK  217  A    between atoms: _508  and  _509
REMARK  218  A    between atoms: _511  and  _513
REMARK  219  A    between atoms: _513  and  _514
REMARK  220  A    between atoms: _516  and  _518
REMARK  221  A    between atoms: _518  and  _519
REMARK  222  A    between atoms: _518  and  _521
REMARK  223  A    between atoms: _521  and  _522
REMARK                            x       y       z     vdW  Elec       q    Type
REMARK                         _______ _______ _______ _____ _____    ______ ____
ROOT
ATOM      1  CB  PHE A   1      32.914  56.744  14.756  0.00  0.00    +0.051 C 
ENDROOT
BRANCH   1   2
ATOM      2  CG  PHE A   1      34.051  57.564  14.234  0.00  0.00    -0.020 A 
ATOM      3  CD2 PHE A   1      34.979  58.120  15.101  0.00  0.00    -0.004 A 
ATOM      4  CE2 PHE A   1      36.052  58.828  14.616  0.00  0.00    -0.000 A 
ATOM      5  CZ  PHE A   1      36.214  58.987  13.256  0.00  0.00    -0.000 A 
ATOM      6  CE1 PHE A   1      35.311  58.427  12.390  0.00  0.00    -0.000 A 
ATOM      7  CD1 PHE A   1      34.241  57.721  12.869  0.00  0.00    -0.004 A 
ENDBRANCH   1   2
BRANCH   1   8
ATOM      8  CA  PHE A   1      31.568  57.444  14.741  0.00  0.00    +0.137 C 
BRANCH   8   9
ATOM      9  N   PHE A   1      31.390  58.202  15.965  0.00  0.00    -0.239 NA
ATOM     10  H   PHE A   1      31.594  57.757  16.883  0.00  0.00    +0.142 HD
ENDBRANCH   8   9
BRANCH   8  11
ATOM     11  C   PHE A   1      30.480  56.393  14.597  0.00  0.00    +0.224 C 
ATOM     12  O   PHE A   1      30.034  55.820  15.588  0.00  0.00    -0.287 OA
ENDBRANCH   8  11
ENDBRANCH   1   8
TORSDOF 4
REMARK  Name = ../refined-set-2016/3s2v/3s2v_pocket.pdb
REMARK  223 active torsions:
REMARK  status: ('A' for Active; 'I' for Inactive)
REMARK    1  A    between atoms: _1  and  _3
REMARK    2  A    between atoms: _3  and  _4
REMARK    3  A    between atoms: _3  and  _6
REMARK    4  A    between atoms: _6  and  _7
REMARK    5  A    between atoms: _10  and  _12
REMARK    6  A    between atoms: _12  and  _13
REMARK    7  A    between atoms: _12  and  _15
REMARK    8  A    between atoms: _15  and  _16
REMARK    9  A    between atoms: _19  and  _21
REMARK   10  A    between atoms: _21  and  _22
REMARK   11  A    between atoms: _21  and  _24
REMARK   12  A    between atoms: _24  and  _25
REMARK   13  A    between atoms: _25  and  _26
REMARK   14  A    between atoms: _29  and  _31
REMARK   15  A    between atoms: _31  and  _32
REMARK   16  A    between atoms: _31  and  _34
REMARK   17  A    between atoms: _34  and  _35
REMARK   18  A    between atoms: _35  and  _36
REMARK   19  A    between atoms: _40  and  _41
REMARK   20  A    between atoms: _46  and  _48
REMARK   21  A    between atoms: _48  and  _49
REMARK   22  A    between atoms: _48  and  _51
REMARK   23  A    between atoms: _51  and  _52
REMARK   24  A    between atoms: _57  and  _58
REMARK   25  A    between atoms: _60  and  _62
REMARK   26  A    between atoms: _62  and  _63
REMARK   27  A    between atoms: _62  and  _65
REMARK   28  A    between atoms: _68  and  _70
REMARK   29  A    between atoms: _70  and  _71
REMARK   30  A    between atoms: _70  and  _73
REMARK   31  A    between atoms: _73  and  _74
REMARK   32  A    between atoms: _74  and  _75
REMARK   33  A    between atoms: _75  and  _76
REMARK   34  A    between atoms: _76  and  _77
REMARK   35  A    between atoms: _81  and  _83
REMARK   36  A    between atoms: _83  and  _84
REMARK   37  A    between atoms: _83  and  _86
REMARK   38  A    between atoms: _86  and  _87
REMARK   39  A    between atoms: _92  and  _93
REMARK   40  A    between atoms: _95  and  _97
REMARK   41  A    between atoms: _97  and  _98
REMARK   42  A    between atoms: _100  and  _102
REMARK   43  A    between atoms: _102  and  _103
REMARK   44  A    between atoms: _106  and  _108
REMARK   45  A    between atoms: _108  and  _109
REMARK   46  A    between atoms: _108  and  _111
REMARK   47  A    between atoms: _111  and  _112
REMARK   48  A    between atoms: _112  and  _113
REMARK   49  A    between atoms: _115  and  _117
REMARK   50  A    between atoms: _117  and  _118
REMARK   51  A    between atoms: _117  and  _120
REMARK   52  A    between atoms: _123  and  _125
REMARK   53  A    between atoms: _125  and  _126
REMARK   54  A    between atoms: _130  and  _131
REMARK   55  A    between atoms: _136  and  _138
REMARK   56  A    between atoms: _138  and  _139
REMARK   57  A    between atoms: _138  and  _141
REMARK   58  A    between atoms: _141  and  _142
REMARK   59  A    between atoms: _145  and  _147
REMARK   60  A    between atoms: _147  and  _148
REMARK   61  A    between atoms: _147  and  _150
REMARK   62  A    between atoms: _150  and  _151
REMARK   63  A    between atoms: _154  and  _156
REMARK   64  A    between atoms: _156  and  _157
REMARK   65  A    between atoms: _156  and  _159
REMARK   66  A    between atoms: _159  and  _160
REMARK   67  A    between atoms: _163  and  _165
REMARK   68  A    between atoms: _165  and  _166
REMARK   69  A    between atoms: _165  and  _168
REMARK   70  A    between atoms: _168  and  _169
REMARK   71  A    between atoms: _172  and  _174
REMARK   72  A    between atoms: _174  and  _175
REMARK   73  A    between atoms: _174  and  _177
REMARK   74  A    between atoms: _177  and  _178
REMARK   75  A    between atoms: _178  and  _179
REMARK   76  A    between atoms: _179  and  _180
REMARK   77  A    between atoms: _189  and  _191
REMARK   78  A    between atoms: _191  and  _192
REMARK   79  A    between atoms: _191  and  _194
REMARK   80  A    between atoms: _194  and  _195
REMARK   81  A    between atoms: _201  and  _203
REMARK   82  A    between atoms: _203  and  _204
REMARK   83  A    between atoms: _203  and  _206
REMARK   84  A    between atoms: _206  and  _207
REMARK   85  A    between atoms: _207  and  _208
REMARK   86  A    between atoms: _210  and  _212
REMARK   87  A    between atoms: _212  and  _213
REMARK   88  A    between atoms: _212  and  _215
REMARK   89  A    between atoms: _215  and  _216
REMARK   90  A    between atoms: _219  and  _221
REMARK   91  A    between atoms: _221  and  _222
REMARK   92  A    between atoms: _224  and  _226
REMARK   93  A    between atoms: _226  and  _227
REMARK   94  A    between atoms: _226  and  _229
REMARK   95  A    between atoms: _229  and  _230
REMARK   96  A    between atoms: _233  and  _235
REMARK   97  A    between atoms: _235  and  _236
REMARK   98  A    between atoms: _235  and  _238
REMARK   99  A    between atoms: _238  and  _239
REMARK  100  A    between atoms: _241  and  _243
REMARK  101  A    between atoms: _243  and  _244
REMARK  102  A    between atoms: _246  and  _248
REMARK  103  A    between atoms: _248  and  _249
REMARK  104  A    between atoms: _252  and  _254
REMARK  105  A    between atoms: _254  and  _255
REMARK  106  A    between atoms: _254  and  _257
REMARK  107  A    between atoms: _260  and  _262
REMARK  108  A    between atoms: _262  and  _263
REMARK  109  A    between atoms: _262  and  _265
REMARK  110  A    between atoms: _265  and  _266
REMARK  111  A    between atoms: _266  and  _267
REMARK  112  A    between atoms: _267  and  _268
REMARK  113  A    between atoms: _277  and  _279
REMARK  114  A    between atoms: _279  and  _280
REMARK  115  A    between atoms: _279  and  _282
REMARK  116  A    between atoms: _282  and  _283
REMARK  117  A    between atoms: _286  and  _288
REMARK  118  A    between atoms: _288  and  _289
REMARK  119  A    between atoms: _291  and  _293
REMARK  120  A    between atoms: _293  and  _294
REMARK  121  A    between atoms: _293  and  _296
REMARK  122  A    between atoms: _296  and  _297
REMARK  123  A    between atoms: _299  and  _301
REMARK  124  A    between atoms: _301  and  _302
REMARK  125  A    between atoms: _301  and  _304
REMARK  126  A    between atoms: _304  and  _305
REMARK  127  A    between atoms: _308  and  _310
REMARK  128  A    between atoms: _310  and  _311
REMARK  129  A    between atoms: _310  and  _313
REMARK  130  A    between atoms: _313  and  _314
REMARK  131  A    between atoms: _314  and  _315
REMARK  132  A    between atoms: _317  and  _319
REMARK  133  A    between atoms: _319  and  _320
REMARK  134  A    between atoms: _319  and  _322
REMARK  135  A    between atoms: _322  and  _323
REMARK  136  A    between atoms: _326  and  _328
REMARK  137  A    between atoms: _328  and  _329
REMARK  138  A    between atoms: _328  and  _331
REMARK  139  A    between atoms: _331  and  _332
REMARK  140  A    between atoms: _338  and  _340
REMARK  141  A    between atoms: _340  and  _341
REMARK  142  A    between atoms: _340  and  _343
REMARK  143  A    between atoms: _343  and  _344
REMARK  144  A    between atoms: _350  and  _352
REMARK  145  A    between atoms: _352  and  _353
REMARK  146  A    between atoms: _352  and  _355
REMARK  147  A    between atoms: _358  and  _360
REMARK  148  A    between atoms: _360  and  _361
REMARK  149  A    between atoms: _360  and  _363
REMARK  150  A    between atoms: _363  and  _364
REMARK  151  A    between atoms: _364  and  _365
REMARK  152  A    between atoms: _365  and  _366
REMARK  153  A    between atoms: _366  and  _367
REMARK  154  A    between atoms: _371  and  _373
REMARK  155  A    between atoms: _373  and  _374
REMARK  156  A    between atoms: _373  and  _376
REMARK  157  A    between atoms: _376  and  _377
REMARK  158  A    between atoms: _382  and  _384
REMARK  159  A    between atoms: _384  and  _385
REMARK  160  A    between atoms: _384  and  _387
REMARK  161  A    between atoms: _387  and  _388
REMARK  162  A    between atoms: _390  and  _392
REMARK  163  A    between atoms: _392  and  _393
REMARK  164  A    between atoms: _392  and  _395
REMARK  165  A    between atoms: _395  and  _396
REMARK  166  A    between atoms: _399  and  _401
REMARK  167  A    between atoms: _401  and  _402
REMARK  168  A    between atoms: _401  and  _404
REMARK  169  A    between atoms: _404  and  _405
REMARK  170  A    between atoms: _408  and  _410
REMARK  171  A    between atoms: _410  and  _411
REMARK  172  A    between atoms: _410  and  _413
REMARK  173  A    between atoms: _413  and  _414
REMARK  174  A    between atoms: _417  and  _419
REMARK  175  A    between atoms: _419  and  _420
REMARK  176  A    between atoms: _419  and  _422
REMARK  177  A    between atoms: _422  and  _423
REMARK  178  A    between atoms: _423  and  _424
REMARK  179  A    between atoms: _426  and  _428
REMARK  180  A    between atoms: _428  and  _429
REMARK  181  A    between atoms: _428  and  _431
REMARK  182  A    between atoms: _431  and  _432
REMARK  183  A    between atoms: _432  and  _433
REMARK  184  A    between atoms: _436  and  _438
REMARK  185  A    between atoms: _438  and  _439
REMARK  186  A    between atoms: _438  and  _441
REMARK  187  A    between atoms: _441  and  _442
REMARK  188  A    between atoms: _444  and  _446
REMARK  189  A    between atoms: _446  and  _447
REMARK  190  A    between atoms: _446  and  _449
REMARK  191  A    between atoms: _449  and  _450
REMARK  192  A    between atoms: _453  and  _455
REMARK  193  A    between atoms: _455  and  _456
REMARK  194  A    between atoms: _455  and  _458
REMARK  195  A    between atoms: _458  and  _459
REMARK  196  A    between atoms: _461  and  _463
REMARK  197  A    between atoms: _463  and  _464
REMARK  198  A    between atoms: _463  and  _466
REMARK  199  A    between atoms: _466  and  _467
REMARK  200  A    between atoms: _470  and  _472
REMARK  201  A    between atoms: _472  and  _473
REMARK  202  A    between atoms: _472  and  _475
REMARK  203  A    between atoms: _475  and  _476
REMARK  204  A    between atoms: _479  and  _481
REMARK  205  A    between atoms: _481  and  _482
REMARK  206  A    between atoms: _481  and  _484
REMARK  207  A    between atoms: _484  and  _485
REMARK  208  A    between atoms: _485  and  _486
REMARK  209  A    between atoms: _486  and  _487
REMARK  210  A    between atoms: _487  and  _488
REMARK  211  A    between atoms: _492  and  _494
REMARK  212  A    between atoms: _494  and  _495
REMARK  213  A    between atoms: _497  and  _499
REMARK  214  A    between atoms: _499  and  _500
REMARK  215  A    between atoms: _499  and  _502
REMARK  216  A    between atoms: _502  and  _503
REMARK  217  A    between atoms: _508  and  _509
REMARK  218  A    between atoms: _511  and  _513
REMARK  219  A    between atoms: _513  and  _514
REMARK  220  A    between atoms: _516  and  _518
REMARK  221  A    between atoms: _518  and  _519
REMARK  222  A    between atoms: _518  and  _521
REMARK  223  A    between atoms: _521  and  _522
REMARK                            x       y       z     vdW  Elec       q    Type
REMARK                         _______ _______ _______ _____ _____    ______ ____
ROOT
ATOM      1  CA  MET A   1      34.898  49.341   5.506  0.00  0.00    +0.134 C 
ENDROOT
BRANCH   1   2
ATOM      2  N   MET A   1      33.798  50.019   6.156  0.00  0.00    -0.239 NA
ATOM      3  H   MET A   1      33.993  50.631   6.974  0.00  0.00    +0.142 HD
ENDBRANCH   1   2
BRANCH   1   4
ATOM      4  C   MET A   1      35.972  49.017   6.547  0.00  0.00    +0.224 C 
ATOM      5  O   MET A   1      36.298  49.838   7.394  0.00  0.00    -0.287 OA
ENDBRANCH   1   4
BRANCH   1   6
ATOM      6  CB  MET A   1      35.454  50.219   4.386  0.00  0.00    +0.037 C 
BRANCH   6   7
ATOM      7  CG  MET A   1      36.332  49.487   3.407  0.00  0.00    +0.059 C 
BRANCH   7   8
ATOM      8  SD  MET A   1      36.784  50.578   2.051  0.00  0.00    -0.139 S 
ATOM      9  CE  MET A   1      35.194  51.165   1.477  0.00  0.00    +0.069 C 
ENDBRANCH   7   8
ENDBRANCH   6   7
ENDBRANCH   1   6
TORSDOF 5
REMARK  Name = ../refined-set-2016/3s2v/3s2v_pocket.pdb
REMARK  223 active torsions:
REMARK  status: ('A' for Active; 'I' for Inactive)
REMARK    1  A    between atoms: _1  and  _3
REMARK    2  A    between atoms: _3  and  _4
REMARK    3  A    between atoms: _3  and  _6
REMARK    4  A    between atoms: _6  and  _7
REMARK    5  A    between atoms: _10  and  _12
REMARK    6  A    between atoms: _12  and  _13
REMARK    7  A    between atoms: _12  and  _15
REMARK    8  A    between atoms: _15  and  _16
REMARK    9  A    between atoms: _19  and  _21
REMARK   10  A    between atoms: _21  and  _22
REMARK   11  A    between atoms: _21  and  _24
REMARK   12  A    between atoms: _24  and  _25
REMARK   13  A    between atoms: _25  and  _26
REMARK   14  A    between atoms: _29  and  _31
REMARK   15  A    between atoms: _31  and  _32
REMARK   16  A    between atoms: _31  and  _34
REMARK   17  A    between atoms: _34  and  _35
REMARK   18  A    between atoms: _35  and  _36
REMARK   19  A    between atoms: _40  and  _41
REMARK   20  A    between atoms: _46  and  _48
REMARK   21  A    between atoms: _48  and  _49
REMARK   22  A    between atoms: _48  and  _51
REMARK   23  A    between atoms: _51  and  _52
REMARK   24  A    between atoms: _57  and  _58
REMARK   25  A    between atoms: _60  and  _62
REMARK   26  A    between atoms: _62  and  _63
REMARK   27  A    between atoms: _62  and  _65
REMARK   28  A    between atoms: _68  and  _70
REMARK   29  A    between atoms: _70  and  _71
REMARK   30  A    between atoms: _70  and  _73
REMARK   31  A    between atoms: _73  and  _74
REMARK   32  A    between atoms: _74  and  _75
REMARK   33  A    between atoms: _75  and  _76
REMARK   34  A    between atoms: _76  and  _77
REMARK   35  A    between atoms: _81  and  _83
REMARK   36  A    between atoms: _83  and  _84
REMARK   37  A    between atoms: _83  and  _86
REMARK   38  A    between atoms: _86  and  _87
REMARK   39  A    between atoms: _92  and  _93
REMARK   40  A    between atoms: _95  and  _97
REMARK   41  A    between atoms: _97  and  _98
REMARK   42  A    between atoms: _100  and  _102
REMARK   43  A    between atoms: _102  and  _103
REMARK   44  A    between atoms: _106  and  _108
REMARK   45  A    between atoms: _108  and  _109
REMARK   46  A    between atoms: _108  and  _111
REMARK   47  A    between atoms: _111  and  _112
REMARK   48  A    between atoms: _112  and  _113
REMARK   49  A    between atoms: _115  and  _117
REMARK   50  A    between atoms: _117  and  _118
REMARK   51  A    between atoms: _117  and  _120
REMARK   52  A    between atoms: _123  and  _125
REMARK   53  A    between atoms: _125  and  _126
REMARK   54  A    between atoms: _130  and  _131
REMARK   55  A    between atoms: _136  and  _138
REMARK   56  A    between atoms: _138  and  _139
REMARK   57  A    between atoms: _138  and  _141
REMARK   58  A    between atoms: _141  and  _142
REMARK   59  A    between atoms: _145  and  _147
REMARK   60  A    between atoms: _147  and  _148
REMARK   61  A    between atoms: _147  and  _150
REMARK   62  A    between atoms: _150  and  _151
REMARK   63  A    between atoms: _154  and  _156
REMARK   64  A    between atoms: _156  and  _157
REMARK   65  A    between atoms: _156  and  _159
REMARK   66  A    between atoms: _159  and  _160
REMARK   67  A    between atoms: _163  and  _165
REMARK   68  A    between atoms: _165  and  _166
REMARK   69  A    between atoms: _165  and  _168
REMARK   70  A    between atoms: _168  and  _169
REMARK   71  A    between atoms: _172  and  _174
REMARK   72  A    between atoms: _174  and  _175
REMARK   73  A    between atoms: _174  and  _177
REMARK   74  A    between atoms: _177  and  _178
REMARK   75  A    between atoms: _178  and  _179
REMARK   76  A    between atoms: _179  and  _180
REMARK   77  A    between atoms: _189  and  _191
REMARK   78  A    between atoms: _191  and  _192
REMARK   79  A    between atoms: _191  and  _194
REMARK   80  A    between atoms: _194  and  _195
REMARK   81  A    between atoms: _201  and  _203
REMARK   82  A    between atoms: _203  and  _204
REMARK   83  A    between atoms: _203  and  _206
REMARK   84  A    between atoms: _206  and  _207
REMARK   85  A    between atoms: _207  and  _208
REMARK   86  A    between atoms: _210  and  _212
REMARK   87  A    between atoms: _212  and  _213
REMARK   88  A    between atoms: _212  and  _215
REMARK   89  A    between atoms: _215  and  _216
REMARK   90  A    between atoms: _219  and  _221
REMARK   91  A    between atoms: _221  and  _222
REMARK   92  A    between atoms: _224  and  _226
REMARK   93  A    between atoms: _226  and  _227
REMARK   94  A    between atoms: _226  and  _229
REMARK   95  A    between atoms: _229  and  _230
REMARK   96  A    between atoms: _233  and  _235
REMARK   97  A    between atoms: _235  and  _236
REMARK   98  A    between atoms: _235  and  _238
REMARK   99  A    between atoms: _238  and  _239
REMARK  100  A    between atoms: _241  and  _243
REMARK  101  A    between atoms: _243  and  _244
REMARK  102  A    between atoms: _246  and  _248
REMARK  103  A    between atoms: _248  and  _249
REMARK  104  A    between atoms: _252  and  _254
REMARK  105  A    between atoms: _254  and  _255
REMARK  106  A    between atoms: _254  and  _257
REMARK  107  A    between atoms: _260  and  _262
REMARK  108  A    between atoms: _262  and  _263
REMARK  109  A    between atoms: _262  and  _265
REMARK  110  A    between atoms: _265  and  _266
REMARK  111  A    between atoms: _266  and  _267
REMARK  112  A    between atoms: _267  and  _268
REMARK  113  A    between atoms: _277  and  _279
REMARK  114  A    between atoms: _279  and  _280
REMARK  115  A    between atoms: _279  and  _282
REMARK  116  A    between atoms: _282  and  _283
REMARK  117  A    between atoms: _286  and  _288
REMARK  118  A    between atoms: _288  and  _289
REMARK  119  A    between atoms: _291  and  _293
REMARK  120  A    between atoms: _293  and  _294
REMARK  121  A    between atoms: _293  and  _296
REMARK  122  A    between atoms: _296  and  _297
REMARK  123  A    between atoms: _299  and  _301
REMARK  124  A    between atoms: _301  and  _302
REMARK  125  A    between atoms: _301  and  _304
REMARK  126  A    between atoms: _304  and  _305
REMARK  127  A    between atoms: _308  and  _310
REMARK  128  A    between atoms: _310  and  _311
REMARK  129  A    between atoms: _310  and  _313
REMARK  130  A    between atoms: _313  and  _314
REMARK  131  A    between atoms: _314  and  _315
REMARK  132  A    between atoms: _317  and  _319
REMARK  133  A    between atoms: _319  and  _320
REMARK  134  A    between atoms: _319  and  _322
REMARK  135  A    between atoms: _322  and  _323
REMARK  136  A    between atoms: _326  and  _328
REMARK  137  A    between atoms: _328  and  _329
REMARK  138  A    between atoms: _328  and  _331
REMARK  139  A    between atoms: _331  and  _332
REMARK  140  A    between atoms: _338  and  _340
REMARK  141  A    between atoms: _340  and  _341
REMARK  142  A    between atoms: _340  and  _343
REMARK  143  A    between atoms: _343  and  _344
REMARK  144  A    between atoms: _350  and  _352
REMARK  145  A    between atoms: _352  and  _353
REMARK  146  A    between atoms: _352  and  _355
REMARK  147  A    between atoms: _358  and  _360
REMARK  148  A    between atoms: _360  and  _361
REMARK  149  A    between atoms: _360  and  _363
REMARK  150  A    between atoms: _363  and  _364
REMARK  151  A    between atoms: _364  and  _365
REMARK  152  A    between atoms: _365  and  _366
REMARK  153  A    between atoms: _366  and  _367
REMARK  154  A    between atoms: _371  and  _373
REMARK  155  A    between atoms: _373  and  _374
REMARK  156  A    between atoms: _373  and  _376
REMARK  157  A    between atoms: _376  and  _377
REMARK  158  A    between atoms: _382  and  _384
REMARK  159  A    between atoms: _384  and  _385
REMARK  160  A    between atoms: _384  and  _387
REMARK  161  A    between atoms: _387  and  _388
REMARK  162  A    between atoms: _390  and  _392
REMARK  163  A    between atoms: _392  and  _393
REMARK  164  A    between atoms: _392  and  _395
REMARK  165  A    between atoms: _395  and  _396
REMARK  166  A    between atoms: _399  and  _401
REMARK  167  A    between atoms: _401  and  _402
REMARK  168  A    between atoms: _401  and  _404
REMARK  169  A    between atoms: _404  and  _405
REMARK  170  A    between atoms: _408  and  _410
REMARK  171  A    between atoms: _410  and  _411
REMARK  172  A    between atoms: _410  and  _413
REMARK  173  A    between atoms: _413  and  _414
REMARK  174  A    between atoms: _417  and  _419
REMARK  175  A    between atoms: _419  and  _420
REMARK  176  A    between atoms: _419  and  _422
REMARK  177  A    between atoms: _422  and  _423
REMARK  178  A    between atoms: _423  and  _424
REMARK  179  A    between atoms: _426  and  _428
REMARK  180  A    between atoms: _428  and  _429
REMARK  181  A    between atoms: _428  and  _431
REMARK  182  A    between atoms: _431  and  _432
REMARK  183  A    between atoms: _432  and  _433
REMARK  184  A    between atoms: _436  and  _438
REMARK  185  A    between atoms: _438  and  _439
REMARK  186  A    between atoms: _438  and  _441
REMARK  187  A    between atoms: _441  and  _442
REMARK  188  A    between atoms: _444  and  _446
REMARK  189  A    between atoms: _446  and  _447
REMARK  190  A    between atoms: _446  and  _449
REMARK  191  A    between atoms: _449  and  _450
REMARK  192  A    between atoms: _453  and  _455
REMARK  193  A    between atoms: _455  and  _456
REMARK  194  A    between atoms: _455  and  _458
REMARK  195  A    between atoms: _458  and  _459
REMARK  196  A    between atoms: _461  and  _463
REMARK  197  A    between atoms: _463  and  _464
REMARK  198  A    between atoms: _463  and  _466
REMARK  199  A    between atoms: _466  and  _467
REMARK  200  A    between atoms: _470  and  _472
REMARK  201  A    between atoms: _472  and  _473
REMARK  202  A    between atoms: _472  and  _475
REMARK  203  A    between atoms: _475  and  _476
REMARK  204  A    between atoms: _479  and  _481
REMARK  205  A    between atoms: _481  and  _482
REMARK  206  A    between atoms: _481  and  _484
REMARK  207  A    between atoms: _484  and  _485
REMARK  208  A    between atoms: _485  and  _486
REMARK  209  A    between atoms: _486  and  _487
REMARK  210  A    between atoms: _487  and  _488
REMARK  211  A    between atoms: _492  and  _494
REMARK  212  A    between atoms: _494  and  _495
REMARK  213  A    between atoms: _497  and  _499
REMARK  214  A    between atoms: _499  and  _500
REMARK  215  A    between atoms: _499  and  _502
REMARK  216  A    between atoms: _502  and  _503
REMARK  217  A    between atoms: _508  and  _509
REMARK  218  A    between atoms: _511  and  _513
REMARK  219  A    between atoms: _513  and  _514
REMARK  220  A    between atoms: _516  and  _518
REMARK  221  A    between atoms: _518  and  _519
REMARK  222  A    between atoms: _518  and  _521
REMARK  223  A    between atoms: _521  and  _522
REMARK                            x       y       z     vdW  Elec       q    Type
REMARK                         _______ _______ _______ _____ _____    ______ ____
ROOT
ATOM      1  C   GLY A   2      45.839  47.950   7.175  0.00  0.00    +0.243 C 
ATOM      2  N   ILE A   3      47.028  47.567   7.624  0.00  0.00    -0.297 N 
ATOM      3  H   ILE A   3      47.085  47.024   8.509  0.00  0.00    +0.150 HD
ATOM      4  O   GLY A   2      45.681  48.658   6.180  0.00  0.00    -0.273 OA
ENDROOT
BRANCH   1   5
ATOM      5  CA  GLY A   2      44.659  47.477   7.979  0.00  0.00    +0.176 C 
BRANCH   5   8
ATOM      6  C   LEU A   1      42.291  47.180   7.598  0.00  0.00    +0.238 C 
ATOM      7  O   LEU A   1      42.059  46.844   8.772  0.00  0.00    -0.274 OA
ATOM      8  N   GLY A   2      43.496  47.465   7.131  0.00  0.00    -0.296 N 
ATOM      9  H   GLY A   2      43.606  47.687   6.121  0.00  0.00    +0.150 HD
BRANCH   6  10
ATOM     10  CA  LEU A   1      41.192  47.306   6.578  0.00  0.00    +0.145 C 
BRANCH  10  11
ATOM     11  N   LEU A   1      39.928  47.425   7.255  0.00  0.00    -0.238 NA
ATOM     12  H   LEU A   1      39.902  47.756   8.240  0.00  0.00    +0.142 HD
ENDBRANCH  10  11
BRANCH  10  13
ATOM     13  CB  LEU A   1      41.439  48.546   5.700  0.00  0.00    +0.026 C 
BRANCH  13  14
ATOM     14  CG  LEU A   1      41.411  49.912   6.389  0.00  0.00    +0.002 C 
ATOM     15  CD2 LEU A   1      39.988  50.388   6.643  0.00  0.00    +0.000 C 
ATOM     16  CD1 LEU A   1      42.170  50.937   5.564  0.00  0.00    +0.000 C 
ENDBRANCH  13  14
ENDBRANCH  10  13
ENDBRANCH   6  10
ENDBRANCH   5   8
ENDBRANCH   1   5
BRANCH   2  17
ATOM     17  CA  ILE A   3      48.245  47.886   6.914  0.00  0.00    +0.149 C 
BRANCH  17  18
ATOM     18  C   ILE A   3      48.657  46.655   6.156  0.00  0.00    +0.241 C 
ATOM     19  O   ILE A   3      48.529  45.550   6.649  0.00  0.00    -0.273 OA
ATOM     20  N   SER A   4      49.145  46.846   4.946  0.00  0.00    -0.296 N 
ATOM     21  H   SER A   4      49.132  47.798   4.527  0.00  0.00    +0.150 HD
BRANCH  20  22
ATOM     22  CA  SER A   4      49.697  45.742   4.200  0.00  0.00    +0.166 C 
BRANCH  22  23
ATOM     23  CB  SER A   4      50.956  46.182   3.449  0.00  0.00    +0.229 C 
ATOM     24  OG  SER A   4      51.477  47.273   3.678  0.00  0.00    -0.286 OA
ENDBRANCH  22  23
BRANCH  22  25
ATOM     25  C   SER A   4      48.651  45.146   3.267  0.00  0.00    +0.165 C 
BRANCH  25  26
ATOM     26  O   SER A   4      48.932  43.782   3.024  0.00  0.00    -0.380 OA
ATOM     27  H   SER A   4      48.922  43.286   3.881  0.00  0.00    +0.211 HD
ENDBRANCH  25  26
ENDBRANCH  22  25
ENDBRANCH  20  22
ENDBRANCH  17  18
BRANCH  17  28
ATOM     28  CB  ILE A   3      49.379  48.275   7.879  0.00  0.00    +0.027 C 
ATOM     29  CG2 ILE A   3      50.741  48.339   7.134  0.00  0.00    +0.002 C 
BRANCH  28  30
ATOM     30  CG1 ILE A   3      49.039  49.584   8.586  0.00  0.00    +0.002 C 
ATOM     31  CD1 ILE A   3      50.176  50.117   9.444  0.00  0.00    +0.000 C 
ENDBRANCH  28  30
ENDBRANCH  17  28
ENDBRANCH   2  17
TORSDOF 14
REMARK  Name = ../refined-set-2016/3s2v/3s2v_pocket.pdb
REMARK  223 active torsions:
REMARK  status: ('A' for Active; 'I' for Inactive)
REMARK    1  A    between atoms: _1  and  _3
REMARK    2  A    between atoms: _3  and  _4
REMARK    3  A    between atoms: _3  and  _6
REMARK    4  A    between atoms: _6  and  _7
REMARK    5  A    between atoms: _10  and  _12
REMARK    6  A    between atoms: _12  and  _13
REMARK    7  A    between atoms: _12  and  _15
REMARK    8  A    between atoms: _15  and  _16
REMARK    9  A    between atoms: _19  and  _21
REMARK   10  A    between atoms: _21  and  _22
REMARK   11  A    between atoms: _21  and  _24
REMARK   12  A    between atoms: _24  and  _25
REMARK   13  A    between atoms: _25  and  _26
REMARK   14  A    between atoms: _29  and  _31
REMARK   15  A    between atoms: _31  and  _32
REMARK   16  A    between atoms: _31  and  _34
REMARK   17  A    between atoms: _34  and  _35
REMARK   18  A    between atoms: _35  and  _36
REMARK   19  A    between atoms: _40  and  _41
REMARK   20  A    between atoms: _46  and  _48
REMARK   21  A    between atoms: _48  and  _49
REMARK   22  A    between atoms: _48  and  _51
REMARK   23  A    between atoms: _51  and  _52
REMARK   24  A    between atoms: _57  and  _58
REMARK   25  A    between atoms: _60  and  _62
REMARK   26  A    between atoms: _62  and  _63
REMARK   27  A    between atoms: _62  and  _65
REMARK   28  A    between atoms: _68  and  _70
REMARK   29  A    between atoms: _70  and  _71
REMARK   30  A    between atoms: _70  and  _73
REMARK   31  A    between atoms: _73  and  _74
REMARK   32  A    between atoms: _74  and  _75
REMARK   33  A    between atoms: _75  and  _76
REMARK   34  A    between atoms: _76  and  _77
REMARK   35  A    between atoms: _81  and  _83
REMARK   36  A    between atoms: _83  and  _84
REMARK   37  A    between atoms: _83  and  _86
REMARK   38  A    between atoms: _86  and  _87
REMARK   39  A    between atoms: _92  and  _93
REMARK   40  A    between atoms: _95  and  _97
REMARK   41  A    between atoms: _97  and  _98
REMARK   42  A    between atoms: _100  and  _102
REMARK   43  A    between atoms: _102  and  _103
REMARK   44  A    between atoms: _106  and  _108
REMARK   45  A    between atoms: _108  and  _109
REMARK   46  A    between atoms: _108  and  _111
REMARK   47  A    between atoms: _111  and  _112
REMARK   48  A    between atoms: _112  and  _113
REMARK   49  A    between atoms: _115  and  _117
REMARK   50  A    between atoms: _117  and  _118
REMARK   51  A    between atoms: _117  and  _120
REMARK   52  A    between atoms: _123  and  _125
REMARK   53  A    between atoms: _125  and  _126
REMARK   54  A    between atoms: _130  and  _131
REMARK   55  A    between atoms: _136  and  _138
REMARK   56  A    between atoms: _138  and  _139
REMARK   57  A    between atoms: _138  and  _141
REMARK   58  A    between atoms: _141  and  _142
REMARK   59  A    between atoms: _145  and  _147
REMARK   60  A    between atoms: _147  and  _148
REMARK   61  A    between atoms: _147  and  _150
REMARK   62  A    between atoms: _150  and  _151
REMARK   63  A    between atoms: _154  and  _156
REMARK   64  A    between atoms: _156  and  _157
REMARK   65  A    between atoms: _156  and  _159
REMARK   66  A    between atoms: _159  and  _160
REMARK   67  A    between atoms: _163  and  _165
REMARK   68  A    between atoms: _165  and  _166
REMARK   69  A    between atoms: _165  and  _168
REMARK   70  A    between atoms: _168  and  _169
REMARK   71  A    between atoms: _172  and  _174
REMARK   72  A    between atoms: _174  and  _175
REMARK   73  A    between atoms: _174  and  _177
REMARK   74  A    between atoms: _177  and  _178
REMARK   75  A    between atoms: _178  and  _179
REMARK   76  A    between atoms: _179  and  _180
REMARK   77  A    between atoms: _189  and  _191
REMARK   78  A    between atoms: _191  and  _192
REMARK   79  A    between atoms: _191  and  _194
REMARK   80  A    between atoms: _194  and  _195
REMARK   81  A    between atoms: _201  and  _203
REMARK   82  A    between atoms: _203  and  _204
REMARK   83  A    between atoms: _203  and  _206
REMARK   84  A    between atoms: _206  and  _207
REMARK   85  A    between atoms: _207  and  _208
REMARK   86  A    between atoms: _210  and  _212
REMARK   87  A    between atoms: _212  and  _213
REMARK   88  A    between atoms: _212  and  _215
REMARK   89  A    between atoms: _215  and  _216
REMARK   90  A    between atoms: _219  and  _221
REMARK   91  A    between atoms: _221  and  _222
REMARK   92  A    between atoms: _224  and  _226
REMARK   93  A    between atoms: _226  and  _227
REMARK   94  A    between atoms: _226  and  _229
REMARK   95  A    between atoms: _229  and  _230
REMARK   96  A    between atoms: _233  and  _235
REMARK   97  A    between atoms: _235  and  _236
REMARK   98  A    between atoms: _235  and  _238
REMARK   99  A    between atoms: _238  and  _239
REMARK  100  A    between atoms: _241  and  _243
REMARK  101  A    between atoms: _243  and  _244
REMARK  102  A    between atoms: _246  and  _248
REMARK  103  A    between atoms: _248  and  _249
REMARK  104  A    between atoms: _252  and  _254
REMARK  105  A    between atoms: _254  and  _255
REMARK  106  A    between atoms: _254  and  _257
REMARK  107  A    between atoms: _260  and  _262
REMARK  108  A    between atoms: _262  and  _263
REMARK  109  A    between atoms: _262  and  _265
REMARK  110  A    between atoms: _265  and  _266
REMARK  111  A    between atoms: _266  and  _267
REMARK  112  A    between atoms: _267  and  _268
REMARK  113  A    between atoms: _277  and  _279
REMARK  114  A    between atoms: _279  and  _280
REMARK  115  A    between atoms: _279  and  _282
REMARK  116  A    between atoms: _282  and  _283
REMARK  117  A    between atoms: _286  and  _288
REMARK  118  A    between atoms: _288  and  _289
REMARK  119  A    between atoms: _291  and  _293
REMARK  120  A    between atoms: _293  and  _294
REMARK  121  A    between atoms: _293  and  _296
REMARK  122  A    between atoms: _296  and  _297
REMARK  123  A    between atoms: _299  and  _301
REMARK  124  A    between atoms: _301  and  _302
REMARK  125  A    between atoms: _301  and  _304
REMARK  126  A    between atoms: _304  and  _305
REMARK  127  A    between atoms: _308  and  _310
REMARK  128  A    between atoms: _310  and  _311
REMARK  129  A    between atoms: _310  and  _313
REMARK  130  A    between atoms: _313  and  _314
REMARK  131  A    between atoms: _314  and  _315
REMARK  132  A    between atoms: _317  and  _319
REMARK  133  A    between atoms: _319  and  _320
REMARK  134  A    between atoms: _319  and  _322
REMARK  135  A    between atoms: _322  and  _323
REMARK  136  A    between atoms: _326  and  _328
REMARK  137  A    between atoms: _328  and  _329
REMARK  138  A    between atoms: _328  and  _331
REMARK  139  A    between atoms: _331  and  _332
REMARK  140  A    between atoms: _338  and  _340
REMARK  141  A    between atoms: _340  and  _341
REMARK  142  A    between atoms: _340  and  _343
REMARK  143  A    between atoms: _343  and  _344
REMARK  144  A    between atoms: _350  and  _352
REMARK  145  A    between atoms: _352  and  _353
REMARK  146  A    between atoms: _352  and  _355
REMARK  147  A    between atoms: _358  and  _360
REMARK  148  A    between atoms: _360  and  _361
REMARK  149  A    between atoms: _360  and  _363
REMARK  150  A    between atoms: _363  and  _364
REMARK  151  A    between atoms: _364  and  _365
REMARK  152  A    between atoms: _365  and  _366
REMARK  153  A    between atoms: _366  and  _367
REMARK  154  A    between atoms: _371  and  _373
REMARK  155  A    between atoms: _373  and  _374
REMARK  156  A    between atoms: _373  and  _376
REMARK  157  A    between atoms: _376  and  _377
REMARK  158  A    between atoms: _382  and  _384
REMARK  159  A    between atoms: _384  and  _385
REMARK  160  A    between atoms: _384  and  _387
REMARK  161  A    between atoms: _387  and  _388
REMARK  162  A    between atoms: _390  and  _392
REMARK  163  A    between atoms: _392  and  _393
REMARK  164  A    between atoms: _392  and  _395
REMARK  165  A    between atoms: _395  and  _396
REMARK  166  A    between atoms: _399  and  _401
REMARK  167  A    between atoms: _401  and  _402
REMARK  168  A    between atoms: _401  and  _404
REMARK  169  A    between atoms: _404  and  _405
REMARK  170  A    between atoms: _408  and  _410
REMARK  171  A    between atoms: _410  and  _411
REMARK  172  A    between atoms: _410  and  _413
REMARK  173  A    between atoms: _413  and  _414
REMARK  174  A    between atoms: _417  and  _419
REMARK  175  A    between atoms: _419  and  _420
REMARK  176  A    between atoms: _419  and  _422
REMARK  177  A    between atoms: _422  and  _423
REMARK  178  A    between atoms: _423  and  _424
REMARK  179  A    between atoms: _426  and  _428
REMARK  180  A    between atoms: _428  and  _429
REMARK  181  A    between atoms: _428  and  _431
REMARK  182  A    between atoms: _431  and  _432
REMARK  183  A    between atoms: _432  and  _433
REMARK  184  A    between atoms: _436  and  _438
REMARK  185  A    between atoms: _438  and  _439
REMARK  186  A    between atoms: _438  and  _441
REMARK  187  A    between atoms: _441  and  _442
REMARK  188  A    between atoms: _444  and  _446
REMARK  189  A    between atoms: _446  and  _447
REMARK  190  A    between atoms: _446  and  _449
REMARK  191  A    between atoms: _449  and  _450
REMARK  192  A    between atoms: _453  and  _455
REMARK  193  A    between atoms: _455  and  _456
REMARK  194  A    between atoms: _455  and  _458
REMARK  195  A    between atoms: _458  and  _459
REMARK  196  A    between atoms: _461  and  _463
REMARK  197  A    between atoms: _463  and  _464
REMARK  198  A    between atoms: _463  and  _466
REMARK  199  A    between atoms: _466  and  _467
REMARK  200  A    between atoms: _470  and  _472
REMARK  201  A    between atoms: _472  and  _473
REMARK  202  A    between atoms: _472  and  _475
REMARK  203  A    between atoms: _475  and  _476
REMARK  204  A    between atoms: _479  and  _481
REMARK  205  A    between atoms: _481  and  _482
REMARK  206  A    between atoms: _481  and  _484
REMARK  207  A    between atoms: _484  and  _485
REMARK  208  A    between atoms: _485  and  _486
REMARK  209  A    between atoms: _486  and  _487
REMARK  210  A    between atoms: _487  and  _488
REMARK  211  A    between atoms: _492  and  _494
REMARK  212  A    between atoms: _494  and  _495
REMARK  213  A    between atoms: _497  and  _499
REMARK  214  A    between atoms: _499  and  _500
REMARK  215  A    between atoms: _499  and  _502
REMARK  216  A    between atoms: _502  and  _503
REMARK  217  A    between atoms: _508  and  _509
REMARK  218  A    between atoms: _511  and  _513
REMARK  219  A    between atoms: _513  and  _514
REMARK  220  A    between atoms: _516  and  _518
REMARK  221  A    between atoms: _518  and  _519
REMARK  222  A    between atoms: _518  and  _521
REMARK  223  A    between atoms: _521  and  _522
REMARK                            x       y       z     vdW  Elec       q    Type
REMARK                         _______ _______ _______ _____ _____    ______ ____
ROOT
ATOM      1  CA  SER A   7      49.649  56.511   9.950  0.00  0.00    +0.178 C 
ENDROOT
BRANCH   1   4
ATOM      2  C   GLY A   6      51.394  57.922   9.041  0.00  0.00    +0.243 C 
ATOM      3  O   GLY A   6      52.196  57.513   9.885  0.00  0.00    -0.273 OA
ATOM      4  N   SER A   7      50.149  57.460   8.963  0.00  0.00    -0.295 N 
ATOM      5  H   SER A   7      49.528  57.778   8.192  0.00  0.00    +0.150 HD
BRANCH   2   6
ATOM      6  CA  GLY A   6      51.788  58.979   8.008  0.00  0.00    +0.176 C 
BRANCH   6   9
ATOM      7  C   ASP A   5      53.288  60.617   8.978  0.00  0.00    +0.241 C 
ATOM      8  O   ASP A   5      52.363  61.191   9.548  0.00  0.00    -0.273 OA
ATOM      9  N   GLY A   6      53.105  59.554   8.200  0.00  0.00    -0.295 N 
ATOM     10  H   GLY A   6      53.923  59.127   7.720  0.00  0.00    +0.150 HD
BRANCH   7  11
ATOM     11  CA  ASP A   5      54.720  61.114   9.146  0.00  0.00    +0.160 C 
BRANCH  11  13
ATOM     12  C   ARG A   4      55.830  60.632   7.010  0.00  0.00    +0.241 C 
ATOM     13  N   ASP A   5      55.705  60.423   8.321  0.00  0.00    -0.297 N 
ATOM     14  H   ASP A   5      56.339  59.736   8.776  0.00  0.00    +0.150 HD
ATOM     15  O   ARG A   4      55.055  61.324   6.351  0.00  0.00    -0.273 OA
BRANCH  12  16
ATOM     16  CA  ARG A   4      57.000  59.931   6.335  0.00  0.00    +0.149 C 
BRANCH  16  19
ATOM     17  C   VAL A   3      55.650  58.265   5.217  0.00  0.00    +0.241 C 
ATOM     18  O   VAL A   3      55.178  57.878   6.279  0.00  0.00    -0.273 OA
ATOM     19  N   ARG A   4      56.550  59.234   5.144  0.00  0.00    -0.297 N 
ATOM     20  H   ARG A   4      56.941  59.500   4.218  0.00  0.00    +0.150 HD
BRANCH  17  21
ATOM     21  CA  VAL A   3      55.215  57.641   3.905  0.00  0.00    +0.149 C 
BRANCH  21  23
ATOM     22  C   ALA A   2      56.397  55.529   4.012  0.00  0.00    +0.241 C 
ATOM     23  N   VAL A   3      55.256  56.197   4.051  0.00  0.00    -0.297 N 
ATOM     24  H   VAL A   3      54.367  55.675   4.190  0.00  0.00    +0.150 HD
ATOM     25  O   ALA A   2      57.465  56.055   3.730  0.00  0.00    -0.273 OA
BRANCH  22  26
ATOM     26  CA  ALA A   2      56.338  54.056   4.336  0.00  0.00    +0.149 C 
ATOM     27  CB  ALA A   2      55.877  53.851   5.785  0.00  0.00    +0.031 C 
BRANCH  26  29
ATOM     28  C   GLY A   1      57.945  52.300   3.824  0.00  0.00    +0.240 C 
ATOM     29  N   ALA A   2      57.693  53.552   4.176  0.00  0.00    -0.297 N 
ATOM     30  H   ALA A   2      58.492  54.197   4.344  0.00  0.00    +0.150 HD
ATOM     31  O   GLY A   1      57.058  51.498   3.536  0.00  0.00    -0.274 OA
BRANCH  28  32
ATOM     32  CA  GLY A   1      59.411  51.920   3.780  0.00  0.00    +0.169 C 
BRANCH  32  33
ATOM     33  N   GLY A   1      59.703  50.789   2.923  0.00  0.00    -0.236 NA
ATOM     34  H   GLY A   1      58.985  50.454   2.250  0.00  0.00    +0.142 HD
ENDBRANCH  32  33
ENDBRANCH  28  32
ENDBRANCH  26  29
ENDBRANCH  22  26
ENDBRANCH  21  23
BRANCH  21  35
ATOM     35  CB  VAL A   3      53.792  58.127   3.614  0.00  0.00    +0.027 C 
ATOM     36  CG2 VAL A   3      53.802  59.607   3.335  0.00  0.00    +0.002 C 
ATOM     37  CG1 VAL A   3      53.186  57.348   2.442  0.00  0.00    +0.002 C 
ENDBRANCH  21  35
ENDBRANCH  17  21
ENDBRANCH  16  19
BRANCH  16  38
ATOM     38  CB  ARG A   4      58.086  60.946   5.981  0.00  0.00    +0.033 C 
BRANCH  38  39
ATOM     39  CG  ARG A   4      58.601  61.740   7.175  0.00  0.00    +0.045 C 
BRANCH  39  40
ATOM     40  CD  ARG A   4      59.638  62.781   6.760  0.00  0.00    +0.174 C 
BRANCH  40  41
ATOM     41  NE  ARG A   4      60.849  62.174   6.209  0.00  0.00    -0.265 N 
ATOM     42  CZ  ARG A   4      61.780  61.553   6.934  0.00  0.00    +0.342 C 
ATOM     43  NH2 ARG A   4      61.641  61.433   8.254  0.00  0.00    -0.292 N 
ATOM     44 HH21 ARG A   4      62.372  60.947   8.812  0.00  0.00    +0.255 HD
ATOM     45 HH22 ARG A   4      60.802  61.825   8.726  0.00  0.00    +0.255 HD
ATOM     46  NH1 ARG A   4      62.850  61.040   6.333  0.00  0.00    -0.292 N 
ATOM     47 HH11 ARG A   4      63.579  60.555   6.894  0.00  0.00    +0.255 HD
ATOM     48 HH12 ARG A   4      62.958  61.124   5.302  0.00  0.00    +0.255 HD
ATOM     49  HE  ARG A   4      60.994  62.231   5.181  0.00  0.00    +0.259 HD
ENDBRANCH  40  41
ENDBRANCH  39  40
ENDBRANCH  38  39
ENDBRANCH  16  38
ENDBRANCH  12  16
ENDBRANCH  11  13
BRANCH  11  50
ATOM     50  CB  ASP A   5      54.783  62.627   8.908  0.00  0.00    +0.143 C 
BRANCH  50  51
ATOM     51  CG  ASP A   5      56.146  63.220   9.258  0.00  0.00    +0.367 C 
ATOM     52  OD2 ASP A   5      56.749  62.753  10.250  0.00  0.00    -0.246 OA
ATOM     53  OD1 ASP A   5      56.609  64.148   8.544  0.00  0.00    -0.246 OA
ENDBRANCH  50  51
ENDBRANCH  11  50
ENDBRANCH   7  11
ENDBRANCH   6   9
ENDBRANCH   2   6
ENDBRANCH   1   4
BRANCH   1  54
ATOM     54  C   SER A   7      50.452  55.216   9.967  0.00  0.00    +0.243 C 
ATOM     55  O   SER A   7      50.642  54.622  11.017  0.00  0.00    -0.273 OA
ATOM     56  N   THR A   8      50.943  54.794   8.812  0.00  0.00    -0.295 N 
ATOM     57  H   THR A   8      50.749  55.332   7.943  0.00  0.00    +0.150 HD
BRANCH  56  58
ATOM     58  CA  THR A   8      51.753  53.584   8.744  0.00  0.00    +0.176 C 
BRANCH  58  59
ATOM     59  C   THR A   8      53.025  53.767   9.554  0.00  0.00    +0.243 C 
ATOM     60  O   THR A   8      53.324  52.974  10.436  0.00  0.00    -0.273 OA
ATOM     61  N   MET A   9      53.759  54.833   9.271  0.00  0.00    -0.297 N 
ATOM     62  H   MET A   9      53.457  55.471   8.507  0.00  0.00    +0.150 HD
BRANCH  61  63
ATOM     63  CA  MET A   9      54.983  55.130  10.010  0.00  0.00    +0.149 C 
BRANCH  63  64
ATOM     64  C   MET A   9      54.694  55.187  11.509  0.00  0.00    +0.241 C 
ATOM     65  O   MET A   9      55.376  54.541  12.305  0.00  0.00    -0.273 OA
ATOM     66  N   THR A  10      53.679  55.961  11.882  0.00  0.00    -0.295 N 
ATOM     67  H   THR A  10      53.164  56.507  11.162  0.00  0.00    +0.150 HD
BRANCH  66  68
ATOM     68  CA  THR A  10      53.274  56.060  13.273  0.00  0.00    +0.176 C 
BRANCH  68  69
ATOM     69  C   THR A  10      53.123  54.683  13.912  0.00  0.00    +0.243 C 
ATOM     70  O   THR A  10      53.718  54.397  14.954  0.00  0.00    -0.273 OA
ATOM     71  N   PHE A  11      52.326  53.829  13.283  0.00  0.00    -0.297 N 
ATOM     72  H   PHE A  11      51.842  54.122  12.410  0.00  0.00    +0.150 HD
BRANCH  71  73
ATOM     73  CA  PHE A  11      52.124  52.495  13.800  0.00  0.00    +0.153 C 
BRANCH  73  74
ATOM     74  C   PHE A  11      53.469  51.812  14.025  0.00  0.00    +0.241 C 
ATOM     75  O   PHE A  11      53.728  51.251  15.088  0.00  0.00    -0.273 OA
ATOM     76  N   PHE A  12      54.323  51.865  13.012  0.00  0.00    -0.298 N 
ATOM     77  H   PHE A  12      54.065  52.389  12.151  0.00  0.00    +0.150 HD
BRANCH  76  78
ATOM     78  CA  PHE A  12      55.615  51.201  13.088  0.00  0.00    +0.141 C 
BRANCH  78  79
ATOM     79  C   PHE A  12      56.538  51.823  14.135  0.00  0.00    +0.227 C 
ATOM     80  O   PHE A  12      57.281  51.123  14.827  0.00  0.00    -0.286 OA
ENDBRANCH  78  79
BRANCH  78  81
ATOM     81  CB  PHE A  12      56.274  51.154  11.712  0.00  0.00    +0.054 C 
BRANCH  81  82
ATOM     82  CG  PHE A  12      55.905  49.945  10.924  0.00  0.00    -0.020 A 
ATOM     83  CD2 PHE A  12      56.663  48.789  11.014  0.00  0.00    -0.004 A 
ATOM     84  CE2 PHE A  12      56.312  47.653  10.305  0.00  0.00    -0.000 A 
ATOM     85  CZ  PHE A  12      55.202  47.667   9.502  0.00  0.00    -0.000 A 
ATOM     86  CE1 PHE A  12      54.432  48.816   9.409  0.00  0.00    -0.000 A 
ATOM     87  CD1 PHE A  12      54.784  49.943  10.122  0.00  0.00    -0.004 A 
ENDBRANCH  81  82
ENDBRANCH  78  81
ENDBRANCH  76  78
ENDBRANCH  73  74
BRANCH  73  88
ATOM     88  CB  PHE A  11      51.275  51.671  12.841  0.00  0.00    +0.055 C 
BRANCH  88  89
ATOM     89  CG  PHE A  11      51.182  50.218  13.218  0.00  0.00    -0.020 A 
ATOM     90  CD2 PHE A  11      50.292  49.797  14.194  0.00  0.00    -0.004 A 
ATOM     91  CE2 PHE A  11      50.198  48.455  14.543  0.00  0.00    -0.000 A 
ATOM     92  CZ  PHE A  11      51.001  47.524  13.918  0.00  0.00    -0.000 A 
ATOM     93  CE1 PHE A  11      51.897  47.935  12.944  0.00  0.00    -0.000 A 
ATOM     94  CD1 PHE A  11      51.986  49.274  12.600  0.00  0.00    -0.004 A 
ENDBRANCH  88  89
ENDBRANCH  73  88
ENDBRANCH  71  73
ENDBRANCH  68  69
BRANCH  68  95
ATOM     95  CB  THR A  10      51.952  56.817  13.420  0.00  0.00    +0.137 C 
ATOM     96  CG2 THR A  10      51.579  56.944  14.891  0.00  0.00    +0.034 C 
BRANCH  95  97
ATOM     97  OG1 THR A  10      52.082  58.122  12.849  0.00  0.00    -0.382 OA
ATOM     98  HG1 THR A  10      52.310  58.040  11.889  0.00  0.00    +0.210 HD
ENDBRANCH  95  97
ENDBRANCH  68  95
ENDBRANCH  66  68
ENDBRANCH  63  64
BRANCH  63  99
ATOM     99  CB  MET A   9      55.601  56.448   9.528  0.00  0.00    +0.041 C 
BRANCH  99 100
ATOM    100  CG  MET A   9      56.548  57.125  10.533  0.00  0.00    +0.060 C 
BRANCH 100 101
ATOM    101  SD  MET A   9      57.582  58.422   9.807  0.00  0.00    -0.139 S 
ATOM    102  CE  MET A   9      58.214  59.223  11.283  0.00  0.00    +0.069 C 
ENDBRANCH 100 101
ENDBRANCH  99 100
ENDBRANCH  63  99
ENDBRANCH  61  63
ENDBRANCH  58  59
BRANCH  58 103
ATOM    103  CB  THR A   8      52.047  53.174   7.270  0.00  0.00    +0.137 C 
ATOM    104  CG2 THR A   8      53.033  52.027   7.192  0.00  0.00    +0.034 C 
BRANCH 103 105
ATOM    105  OG1 THR A   8      50.824  52.760   6.661  0.00  0.00    -0.382 OA
ATOM    106  HG1 THR A   8      50.177  53.509   6.681  0.00  0.00    +0.210 HD
ENDBRANCH 103 105
ENDBRANCH  58 103
ENDBRANCH  56  58
ENDBRANCH   1  54
BRANCH   1 107
ATOM    107  CB  SER A   7      48.159  56.242   9.758  0.00  0.00    +0.166 C 
BRANCH 107 108
ATOM    108  OG  SER A   7      47.879  55.928   8.412  0.00  0.00    -0.380 OA
ATOM    109  H   SER A   7      46.909  55.757   8.309  0.00  0.00    +0.211 HD
ENDBRANCH 107 108
ENDBRANCH   1 107
TORSDOF 44
REMARK  Name = ../refined-set-2016/3s2v/3s2v_pocket.pdb
REMARK  223 active torsions:
REMARK  status: ('A' for Active; 'I' for Inactive)
REMARK    1  A    between atoms: _1  and  _3
REMARK    2  A    between atoms: _3  and  _4
REMARK    3  A    between atoms: _3  and  _6
REMARK    4  A    between atoms: _6  and  _7
REMARK    5  A    between atoms: _10  and  _12
REMARK    6  A    between atoms: _12  and  _13
REMARK    7  A    between atoms: _12  and  _15
REMARK    8  A    between atoms: _15  and  _16
REMARK    9  A    between atoms: _19  and  _21
REMARK   10  A    between atoms: _21  and  _22
REMARK   11  A    between atoms: _21  and  _24
REMARK   12  A    between atoms: _24  and  _25
REMARK   13  A    between atoms: _25  and  _26
REMARK   14  A    between atoms: _29  and  _31
REMARK   15  A    between atoms: _31  and  _32
REMARK   16  A    between atoms: _31  and  _34
REMARK   17  A    between atoms: _34  and  _35
REMARK   18  A    between atoms: _35  and  _36
REMARK   19  A    between atoms: _40  and  _41
REMARK   20  A    between atoms: _46  and  _48
REMARK   21  A    between atoms: _48  and  _49
REMARK   22  A    between atoms: _48  and  _51
REMARK   23  A    between atoms: _51  and  _52
REMARK   24  A    between atoms: _57  and  _58
REMARK   25  A    between atoms: _60  and  _62
REMARK   26  A    between atoms: _62  and  _63
REMARK   27  A    between atoms: _62  and  _65
REMARK   28  A    between atoms: _68  and  _70
REMARK   29  A    between atoms: _70  and  _71
REMARK   30  A    between atoms: _70  and  _73
REMARK   31  A    between atoms: _73  and  _74
REMARK   32  A    between atoms: _74  and  _75
REMARK   33  A    between atoms: _75  and  _76
REMARK   34  A    between atoms: _76  and  _77
REMARK   35  A    between atoms: _81  and  _83
REMARK   36  A    between atoms: _83  and  _84
REMARK   37  A    between atoms: _83  and  _86
REMARK   38  A    between atoms: _86  and  _87
REMARK   39  A    between atoms: _92  and  _93
REMARK   40  A    between atoms: _95  and  _97
REMARK   41  A    between atoms: _97  and  _98
REMARK   42  A    between atoms: _100  and  _102
REMARK   43  A    between atoms: _102  and  _103
REMARK   44  A    between atoms: _106  and  _108
REMARK   45  A    between atoms: _108  and  _109
REMARK   46  A    between atoms: _108  and  _111
REMARK   47  A    between atoms: _111  and  _112
REMARK   48  A    between atoms: _112  and  _113
REMARK   49  A    between atoms: _115  and  _117
REMARK   50  A    between atoms: _117  and  _118
REMARK   51  A    between atoms: _117  and  _120
REMARK   52  A    between atoms: _123  and  _125
REMARK   53  A    between atoms: _125  and  _126
REMARK   54  A    between atoms: _130  and  _131
REMARK   55  A    between atoms: _136  and  _138
REMARK   56  A    between atoms: _138  and  _139
REMARK   57  A    between atoms: _138  and  _141
REMARK   58  A    between atoms: _141  and  _142
REMARK   59  A    between atoms: _145  and  _147
REMARK   60  A    between atoms: _147  and  _148
REMARK   61  A    between atoms: _147  and  _150
REMARK   62  A    between atoms: _150  and  _151
REMARK   63  A    between atoms: _154  and  _156
REMARK   64  A    between atoms: _156  and  _157
REMARK   65  A    between atoms: _156  and  _159
REMARK   66  A    between atoms: _159  and  _160
REMARK   67  A    between atoms: _163  and  _165
REMARK   68  A    between atoms: _165  and  _166
REMARK   69  A    between atoms: _165  and  _168
REMARK   70  A    between atoms: _168  and  _169
REMARK   71  A    between atoms: _172  and  _174
REMARK   72  A    between atoms: _174  and  _175
REMARK   73  A    between atoms: _174  and  _177
REMARK   74  A    between atoms: _177  and  _178
REMARK   75  A    between atoms: _178  and  _179
REMARK   76  A    between atoms: _179  and  _180
REMARK   77  A    between atoms: _189  and  _191
REMARK   78  A    between atoms: _191  and  _192
REMARK   79  A    between atoms: _191  and  _194
REMARK   80  A    between atoms: _194  and  _195
REMARK   81  A    between atoms: _201  and  _203
REMARK   82  A    between atoms: _203  and  _204
REMARK   83  A    between atoms: _203  and  _206
REMARK   84  A    between atoms: _206  and  _207
REMARK   85  A    between atoms: _207  and  _208
REMARK   86  A    between atoms: _210  and  _212
REMARK   87  A    between atoms: _212  and  _213
REMARK   88  A    between atoms: _212  and  _215
REMARK   89  A    between atoms: _215  and  _216
REMARK   90  A    between atoms: _219  and  _221
REMARK   91  A    between atoms: _221  and  _222
REMARK   92  A    between atoms: _224  and  _226
REMARK   93  A    between atoms: _226  and  _227
REMARK   94  A    between atoms: _226  and  _229
REMARK   95  A    between atoms: _229  and  _230
REMARK   96  A    between atoms: _233  and  _235
REMARK   97  A    between atoms: _235  and  _236
REMARK   98  A    between atoms: _235  and  _238
REMARK   99  A    between atoms: _238  and  _239
REMARK  100  A    between atoms: _241  and  _243
REMARK  101  A    between atoms: _243  and  _244
REMARK  102  A    between atoms: _246  and  _248
REMARK  103  A    between atoms: _248  and  _249
REMARK  104  A    between atoms: _252  and  _254
REMARK  105  A    between atoms: _254  and  _255
REMARK  106  A    between atoms: _254  and  _257
REMARK  107  A    between atoms: _260  and  _262
REMARK  108  A    between atoms: _262  and  _263
REMARK  109  A    between atoms: _262  and  _265
REMARK  110  A    between atoms: _265  and  _266
REMARK  111  A    between atoms: _266  and  _267
REMARK  112  A    between atoms: _267  and  _268
REMARK  113  A    between atoms: _277  and  _279
REMARK  114  A    between atoms: _279  and  _280
REMARK  115  A    between atoms: _279  and  _282
REMARK  116  A    between atoms: _282  and  _283
REMARK  117  A    between atoms: _286  and  _288
REMARK  118  A    between atoms: _288  and  _289
REMARK  119  A    between atoms: _291  and  _293
REMARK  120  A    between atoms: _293  and  _294
REMARK  121  A    between atoms: _293  and  _296
REMARK  122  A    between atoms: _296  and  _297
REMARK  123  A    between atoms: _299  and  _301
REMARK  124  A    between atoms: _301  and  _302
REMARK  125  A    between atoms: _301  and  _304
REMARK  126  A    between atoms: _304  and  _305
REMARK  127  A    between atoms: _308  and  _310
REMARK  128  A    between atoms: _310  and  _311
REMARK  129  A    between atoms: _310  and  _313
REMARK  130  A    between atoms: _313  and  _314
REMARK  131  A    between atoms: _314  and  _315
REMARK  132  A    between atoms: _317  and  _319
REMARK  133  A    between atoms: _319  and  _320
REMARK  134  A    between atoms: _319  and  _322
REMARK  135  A    between atoms: _322  and  _323
REMARK  136  A    between atoms: _326  and  _328
REMARK  137  A    between atoms: _328  and  _329
REMARK  138  A    between atoms: _328  and  _331
REMARK  139  A    between atoms: _331  and  _332
REMARK  140  A    between atoms: _338  and  _340
REMARK  141  A    between atoms: _340  and  _341
REMARK  142  A    between atoms: _340  and  _343
REMARK  143  A    between atoms: _343  and  _344
REMARK  144  A    between atoms: _350  and  _352
REMARK  145  A    between atoms: _352  and  _353
REMARK  146  A    between atoms: _352  and  _355
REMARK  147  A    between atoms: _358  and  _360
REMARK  148  A    between atoms: _360  and  _361
REMARK  149  A    between atoms: _360  and  _363
REMARK  150  A    between atoms: _363  and  _364
REMARK  151  A    between atoms: _364  and  _365
REMARK  152  A    between atoms: _365  and  _366
REMARK  153  A    between atoms: _366  and  _367
REMARK  154  A    between atoms: _371  and  _373
REMARK  155  A    between atoms: _373  and  _374
REMARK  156  A    between atoms: _373  and  _376
REMARK  157  A    between atoms: _376  and  _377
REMARK  158  A    between atoms: _382  and  _384
REMARK  159  A    between atoms: _384  and  _385
REMARK  160  A    between atoms: _384  and  _387
REMARK  161  A    between atoms: _387  and  _388
REMARK  162  A    between atoms: _390  and  _392
REMARK  163  A    between atoms: _392  and  _393
REMARK  164  A    between atoms: _392  and  _395
REMARK  165  A    between atoms: _395  and  _396
REMARK  166  A    between atoms: _399  and  _401
REMARK  167  A    between atoms: _401  and  _402
REMARK  168  A    between atoms: _401  and  _404
REMARK  169  A    between atoms: _404  and  _405
REMARK  170  A    between atoms: _408  and  _410
REMARK  171  A    between atoms: _410  and  _411
REMARK  172  A    between atoms: _410  and  _413
REMARK  173  A    between atoms: _413  and  _414
REMARK  174  A    between atoms: _417  and  _419
REMARK  175  A    between atoms: _419  and  _420
REMARK  176  A    between atoms: _419  and  _422
REMARK  177  A    between atoms: _422  and  _423
REMARK  178  A    between atoms: _423  and  _424
REMARK  179  A    between atoms: _426  and  _428
REMARK  180  A    between atoms: _428  and  _429
REMARK  181  A    between atoms: _428  and  _431
REMARK  182  A    between atoms: _431  and  _432
REMARK  183  A    between atoms: _432  and  _433
REMARK  184  A    between atoms: _436  and  _438
REMARK  185  A    between atoms: _438  and  _439
REMARK  186  A    between atoms: _438  and  _441
REMARK  187  A    between atoms: _441  and  _442
REMARK  188  A    between atoms: _444  and  _446
REMARK  189  A    between atoms: _446  and  _447
REMARK  190  A    between atoms: _446  and  _449
REMARK  191  A    between atoms: _449  and  _450
REMARK  192  A    between atoms: _453  and  _455
REMARK  193  A    between atoms: _455  and  _456
REMARK  194  A    between atoms: _455  and  _458
REMARK  195  A    between atoms: _458  and  _459
REMARK  196  A    between atoms: _461  and  _463
REMARK  197  A    between atoms: _463  and  _464
REMARK  198  A    between atoms: _463  and  _466
REMARK  199  A    between atoms: _466  and  _467
REMARK  200  A    between atoms: _470  and  _472
REMARK  201  A    between atoms: _472  and  _473
REMARK  202  A    between atoms: _472  and  _475
REMARK  203  A    between atoms: _475  and  _476
REMARK  204  A    between atoms: _479  and  _481
REMARK  205  A    between atoms: _481  and  _482
REMARK  206  A    between atoms: _481  and  _484
REMARK  207  A    between atoms: _484  and  _485
REMARK  208  A    between atoms: _485  and  _486
REMARK  209  A    between atoms: _486  and  _487
REMARK  210  A    between atoms: _487  and  _488
REMARK  211  A    between atoms: _492  and  _494
REMARK  212  A    between atoms: _494  and  _495
REMARK  213  A    between atoms: _497  and  _499
REMARK  214  A    between atoms: _499  and  _500
REMARK  215  A    between atoms: _499  and  _502
REMARK  216  A    between atoms: _502  and  _503
REMARK  217  A    between atoms: _508  and  _509
REMARK  218  A    between atoms: _511  and  _513
REMARK  219  A    between atoms: _513  and  _514
REMARK  220  A    between atoms: _516  and  _518
REMARK  221  A    between atoms: _518  and  _519
REMARK  222  A    between atoms: _518  and  _521
REMARK  223  A    between atoms: _521  and  _522
REMARK                            x       y       z     vdW  Elec       q    Type
REMARK                         _______ _______ _______ _____ _____    ______ ____
ROOT
ATOM      1  CA  ASN A   3      53.612  60.755  -0.010  0.00  0.00    +0.158 C 
ENDROOT
BRANCH   1   4
ATOM      2  C   LYS A   2      55.481  61.872   1.032  0.00  0.00    +0.241 C 
ATOM      3  O   LYS A   2      54.746  62.429   1.840  0.00  0.00    -0.273 OA
ATOM      4  N   ASN A   3      55.035  61.010   0.133  0.00  0.00    -0.297 N 
ATOM      5  H   ASN A   3      55.711  60.509  -0.478  0.00  0.00    +0.150 HD
BRANCH   2   6
ATOM      6  CA  LYS A   2      56.978  62.133   1.032  0.00  0.00    +0.149 C 
BRANCH   6   9
ATOM      7  C   VAL A   1      57.869  59.913   1.430  0.00  0.00    +0.238 C 
ATOM      8  O   VAL A   1      57.258  59.808   2.496  0.00  0.00    -0.274 OA
ATOM      9  N   LYS A   2      57.724  60.951   0.618  0.00  0.00    -0.297 N 
ATOM     10  H   LYS A   2      58.150  60.921  -0.330  0.00  0.00    +0.150 HD
BRANCH   7  11
ATOM     11  CA  VAL A   1      58.851  58.836   0.990  0.00  0.00    +0.145 C 
BRANCH  11  12
ATOM     12  CB  VAL A   1      58.267  57.984  -0.170  0.00  0.00    +0.025 C 
ATOM     13  CG2 VAL A   1      56.950  57.339   0.231  0.00  0.00    +0.002 C 
ATOM     14  CG1 VAL A   1      59.268  56.909  -0.601  0.00  0.00    +0.002 C 
ENDBRANCH  11  12
BRANCH  11  15
ATOM     15  N   VAL A   1      59.199  58.018   2.143  0.00  0.00    -0.238 NA
ATOM     16  H   VAL A   1      58.448  57.726   2.801  0.00  0.00    +0.142 HD
ENDBRANCH  11  15
ENDBRANCH   7  11
ENDBRANCH   6   9
BRANCH   6  17
ATOM     17  CB  LYS A   2      57.318  63.333   0.142  0.00  0.00    +0.029 C 
BRANCH  17  18
ATOM     18  CG  LYS A   2      56.504  64.605   0.441  0.00  0.00    +0.000 C 
BRANCH  18  19
ATOM     19  CD  LYS A   2      57.234  65.573   1.394  0.00  0.00    -0.024 C 
BRANCH  19  20
ATOM     20  CE  LYS A   2      56.295  66.694   1.891  0.00  0.00    -0.086 C 
BRANCH  20  21
ATOM     21  NZ  LYS A   2      56.915  67.682   2.847  0.00  0.00    +0.380 N 
ATOM     22  HZ1 LYS A   2      57.249  67.180   3.694  0.00  0.00    -0.089 HD
ATOM     23  HZ2 LYS A   2      56.205  68.391   3.120  0.00  0.00    -0.089 HD
ATOM     24  HZ3 LYS A   2      57.718  68.154   2.384  0.00  0.00    -0.089 HD
ENDBRANCH  20  21
ENDBRANCH  19  20
ENDBRANCH  18  19
ENDBRANCH  17  18
ENDBRANCH   6  17
ENDBRANCH   2   6
ENDBRANCH   1   4
BRANCH   1  25
ATOM     25  C   ASN A   3      53.373  59.466  -0.779  0.00  0.00    +0.241 C 
ATOM     26  N   SER A   4      52.151  58.971  -0.718  0.00  0.00    -0.295 N 
ATOM     27  H   SER A   4      51.385  59.522  -0.280  0.00  0.00    +0.150 HD
ATOM     28  O   ASN A   3      54.270  58.934  -1.439  0.00  0.00    -0.273 OA
BRANCH  26  29
ATOM     29  CA  SER A   4      51.882  57.656  -1.265  0.00  0.00    +0.178 C 
BRANCH  29  30
ATOM     30  C   SER A   4      52.079  57.568  -2.781  0.00  0.00    +0.243 C 
ATOM     31  O   SER A   4      52.463  56.518  -3.288  0.00  0.00    -0.273 OA
ATOM     32  N   ASP A   5      51.842  58.655  -3.507  0.00  0.00    -0.297 N 
ATOM     33  H   ASP A   5      51.441  59.505  -3.063  0.00  0.00    +0.150 HD
BRANCH  32  34
ATOM     34  CA  ASP A   5      52.151  58.645  -4.940  0.00  0.00    +0.148 C 
BRANCH  34  35
ATOM     35  C   ASP A   5      53.638  58.403  -5.190  0.00  0.00    +0.227 C 
ATOM     36  O   ASP A   5      54.013  57.663  -6.092  0.00  0.00    -0.286 OA
ENDBRANCH  34  35
BRANCH  34  37
ATOM     37  CB  ASP A   5      51.698  59.933  -5.635  0.00  0.00    +0.142 C 
BRANCH  37  38
ATOM     38  CG  ASP A   5      50.190  60.030  -5.748  0.00  0.00    +0.367 C 
ATOM     39  OD2 ASP A   5      49.526  58.968  -5.681  0.00  0.00    -0.246 OA
ATOM     40  OD1 ASP A   5      49.673  61.161  -5.909  0.00  0.00    -0.246 OA
ENDBRANCH  37  38
ENDBRANCH  34  37
ENDBRANCH  32  34
ENDBRANCH  29  30
BRANCH  29  41
ATOM     41  CB  SER A   4      50.518  57.130  -0.811  0.00  0.00    +0.166 C 
BRANCH  41  42
ATOM     42  OG  SER A   4      49.473  57.968  -1.227  0.00  0.00    -0.380 OA
ATOM     43  H   SER A   4      48.610  57.596  -0.916  0.00  0.00    +0.211 HD
ENDBRANCH  41  42
ENDBRANCH  29  41
ENDBRANCH  26  29
ENDBRANCH   1  25
BRANCH   1  44
ATOM     44  CB  ASN A   3      52.926  61.927  -0.724  0.00  0.00    +0.114 C 
BRANCH  44  45
ATOM     45  CG  ASN A   3      53.516  62.195  -2.094  0.00  0.00    +0.222 C 
ATOM     46  ND2 ASN A   3      54.033  63.401  -2.290  0.00  0.00    -0.329 N 
ATOM     47 HD21 ASN A   3      54.014  64.105  -1.525  0.00  0.00    +0.145 HD
ATOM     48 HD22 ASN A   3      54.457  63.642  -3.208  0.00  0.00    +0.145 HD
ATOM     49  OD1 ASN A   3      53.513  61.325  -2.966  0.00  0.00    -0.275 OA
ENDBRANCH  44  45
ENDBRANCH   1  44
TORSDOF 22
REMARK  Name = ../refined-set-2016/3s2v/3s2v_pocket.pdb
REMARK  223 active torsions:
REMARK  status: ('A' for Active; 'I' for Inactive)
REMARK    1  A    between atoms: _1  and  _3
REMARK    2  A    between atoms: _3  and  _4
REMARK    3  A    between atoms: _3  and  _6
REMARK    4  A    between atoms: _6  and  _7
REMARK    5  A    between atoms: _10  and  _12
REMARK    6  A    between atoms: _12  and  _13
REMARK    7  A    between atoms: _12  and  _15
REMARK    8  A    between atoms: _15  and  _16
REMARK    9  A    between atoms: _19  and  _21
REMARK   10  A    between atoms: _21  and  _22
REMARK   11  A    between atoms: _21  and  _24
REMARK   12  A    between atoms: _24  and  _25
REMARK   13  A    between atoms: _25  and  _26
REMARK   14  A    between atoms: _29  and  _31
REMARK   15  A    between atoms: _31  and  _32
REMARK   16  A    between atoms: _31  and  _34
REMARK   17  A    between atoms: _34  and  _35
REMARK   18  A    between atoms: _35  and  _36
REMARK   19  A    between atoms: _40  and  _41
REMARK   20  A    between atoms: _46  and  _48
REMARK   21  A    between atoms: _48  and  _49
REMARK   22  A    between atoms: _48  and  _51
REMARK   23  A    between atoms: _51  and  _52
REMARK   24  A    between atoms: _57  and  _58
REMARK   25  A    between atoms: _60  and  _62
REMARK   26  A    between atoms: _62  and  _63
REMARK   27  A    between atoms: _62  and  _65
REMARK   28  A    between atoms: _68  and  _70
REMARK   29  A    between atoms: _70  and  _71
REMARK   30  A    between atoms: _70  and  _73
REMARK   31  A    between atoms: _73  and  _74
REMARK   32  A    between atoms: _74  and  _75
REMARK   33  A    between atoms: _75  and  _76
REMARK   34  A    between atoms: _76  and  _77
REMARK   35  A    between atoms: _81  and  _83
REMARK   36  A    between atoms: _83  and  _84
REMARK   37  A    between atoms: _83  and  _86
REMARK   38  A    between atoms: _86  and  _87
REMARK   39  A    between atoms: _92  and  _93
REMARK   40  A    between atoms: _95  and  _97
REMARK   41  A    between atoms: _97  and  _98
REMARK   42  A    between atoms: _100  and  _102
REMARK   43  A    between atoms: _102  and  _103
REMARK   44  A    between atoms: _106  and  _108
REMARK   45  A    between atoms: _108  and  _109
REMARK   46  A    between atoms: _108  and  _111
REMARK   47  A    between atoms: _111  and  _112
REMARK   48  A    between atoms: _112  and  _113
REMARK   49  A    between atoms: _115  and  _117
REMARK   50  A    between atoms: _117  and  _118
REMARK   51  A    between atoms: _117  and  _120
REMARK   52  A    between atoms: _123  and  _125
REMARK   53  A    between atoms: _125  and  _126
REMARK   54  A    between atoms: _130  and  _131
REMARK   55  A    between atoms: _136  and  _138
REMARK   56  A    between atoms: _138  and  _139
REMARK   57  A    between atoms: _138  and  _141
REMARK   58  A    between atoms: _141  and  _142
REMARK   59  A    between atoms: _145  and  _147
REMARK   60  A    between atoms: _147  and  _148
REMARK   61  A    between atoms: _147  and  _150
REMARK   62  A    between atoms: _150  and  _151
REMARK   63  A    between atoms: _154  and  _156
REMARK   64  A    between atoms: _156  and  _157
REMARK   65  A    between atoms: _156  and  _159
REMARK   66  A    between atoms: _159  and  _160
REMARK   67  A    between atoms: _163  and  _165
REMARK   68  A    between atoms: _165  and  _166
REMARK   69  A    between atoms: _165  and  _168
REMARK   70  A    between atoms: _168  and  _169
REMARK   71  A    between atoms: _172  and  _174
REMARK   72  A    between atoms: _174  and  _175
REMARK   73  A    between atoms: _174  and  _177
REMARK   74  A    between atoms: _177  and  _178
REMARK   75  A    between atoms: _178  and  _179
REMARK   76  A    between atoms: _179  and  _180
REMARK   77  A    between atoms: _189  and  _191
REMARK   78  A    between atoms: _191  and  _192
REMARK   79  A    between atoms: _191  and  _194
REMARK   80  A    between atoms: _194  and  _195
REMARK   81  A    between atoms: _201  and  _203
REMARK   82  A    between atoms: _203  and  _204
REMARK   83  A    between atoms: _203  and  _206
REMARK   84  A    between atoms: _206  and  _207
REMARK   85  A    between atoms: _207  and  _208
REMARK   86  A    between atoms: _210  and  _212
REMARK   87  A    between atoms: _212  and  _213
REMARK   88  A    between atoms: _212  and  _215
REMARK   89  A    between atoms: _215  and  _216
REMARK   90  A    between atoms: _219  and  _221
REMARK   91  A    between atoms: _221  and  _222
REMARK   92  A    between atoms: _224  and  _226
REMARK   93  A    between atoms: _226  and  _227
REMARK   94  A    between atoms: _226  and  _229
REMARK   95  A    between atoms: _229  and  _230
REMARK   96  A    between atoms: _233  and  _235
REMARK   97  A    between atoms: _235  and  _236
REMARK   98  A    between atoms: _235  and  _238
REMARK   99  A    between atoms: _238  and  _239
REMARK  100  A    between atoms: _241  and  _243
REMARK  101  A    between atoms: _243  and  _244
REMARK  102  A    between atoms: _246  and  _248
REMARK  103  A    between atoms: _248  and  _249
REMARK  104  A    between atoms: _252  and  _254
REMARK  105  A    between atoms: _254  and  _255
REMARK  106  A    between atoms: _254  and  _257
REMARK  107  A    between atoms: _260  and  _262
REMARK  108  A    between atoms: _262  and  _263
REMARK  109  A    between atoms: _262  and  _265
REMARK  110  A    between atoms: _265  and  _266
REMARK  111  A    between atoms: _266  and  _267
REMARK  112  A    between atoms: _267  and  _268
REMARK  113  A    between atoms: _277  and  _279
REMARK  114  A    between atoms: _279  and  _280
REMARK  115  A    between atoms: _279  and  _282
REMARK  116  A    between atoms: _282  and  _283
REMARK  117  A    between atoms: _286  and  _288
REMARK  118  A    between atoms: _288  and  _289
REMARK  119  A    between atoms: _291  and  _293
REMARK  120  A    between atoms: _293  and  _294
REMARK  121  A    between atoms: _293  and  _296
REMARK  122  A    between atoms: _296  and  _297
REMARK  123  A    between atoms: _299  and  _301
REMARK  124  A    between atoms: _301  and  _302
REMARK  125  A    between atoms: _301  and  _304
REMARK  126  A    between atoms: _304  and  _305
REMARK  127  A    between atoms: _308  and  _310
REMARK  128  A    between atoms: _310  and  _311
REMARK  129  A    between atoms: _310  and  _313
REMARK  130  A    between atoms: _313  and  _314
REMARK  131  A    between atoms: _314  and  _315
REMARK  132  A    between atoms: _317  and  _319
REMARK  133  A    between atoms: _319  and  _320
REMARK  134  A    between atoms: _319  and  _322
REMARK  135  A    between atoms: _322  and  _323
REMARK  136  A    between atoms: _326  and  _328
REMARK  137  A    between atoms: _328  and  _329
REMARK  138  A    between atoms: _328  and  _331
REMARK  139  A    between atoms: _331  and  _332
REMARK  140  A    between atoms: _338  and  _340
REMARK  141  A    between atoms: _340  and  _341
REMARK  142  A    between atoms: _340  and  _343
REMARK  143  A    between atoms: _343  and  _344
REMARK  144  A    between atoms: _350  and  _352
REMARK  145  A    between atoms: _352  and  _353
REMARK  146  A    between atoms: _352  and  _355
REMARK  147  A    between atoms: _358  and  _360
REMARK  148  A    between atoms: _360  and  _361
REMARK  149  A    between atoms: _360  and  _363
REMARK  150  A    between atoms: _363  and  _364
REMARK  151  A    between atoms: _364  and  _365
REMARK  152  A    between atoms: _365  and  _366
REMARK  153  A    between atoms: _366  and  _367
REMARK  154  A    between atoms: _371  and  _373
REMARK  155  A    between atoms: _373  and  _374
REMARK  156  A    between atoms: _373  and  _376
REMARK  157  A    between atoms: _376  and  _377
REMARK  158  A    between atoms: _382  and  _384
REMARK  159  A    between atoms: _384  and  _385
REMARK  160  A    between atoms: _384  and  _387
REMARK  161  A    between atoms: _387  and  _388
REMARK  162  A    between atoms: _390  and  _392
REMARK  163  A    between atoms: _392  and  _393
REMARK  164  A    between atoms: _392  and  _395
REMARK  165  A    between atoms: _395  and  _396
REMARK  166  A    between atoms: _399  and  _401
REMARK  167  A    between atoms: _401  and  _402
REMARK  168  A    between atoms: _401  and  _404
REMARK  169  A    between atoms: _404  and  _405
REMARK  170  A    between atoms: _408  and  _410
REMARK  171  A    between atoms: _410  and  _411
REMARK  172  A    between atoms: _410  and  _413
REMARK  173  A    between atoms: _413  and  _414
REMARK  174  A    between atoms: _417  and  _419
REMARK  175  A    between atoms: _419  and  _420
REMARK  176  A    between atoms: _419  and  _422
REMARK  177  A    between atoms: _422  and  _423
REMARK  178  A    between atoms: _423  and  _424
REMARK  179  A    between atoms: _426  and  _428
REMARK  180  A    between atoms: _428  and  _429
REMARK  181  A    between atoms: _428  and  _431
REMARK  182  A    between atoms: _431  and  _432
REMARK  183  A    between atoms: _432  and  _433
REMARK  184  A    between atoms: _436  and  _438
REMARK  185  A    between atoms: _438  and  _439
REMARK  186  A    between atoms: _438  and  _441
REMARK  187  A    between atoms: _441  and  _442
REMARK  188  A    between atoms: _444  and  _446
REMARK  189  A    between atoms: _446  and  _447
REMARK  190  A    between atoms: _446  and  _449
REMARK  191  A    between atoms: _449  and  _450
REMARK  192  A    between atoms: _453  and  _455
REMARK  193  A    between atoms: _455  and  _456
REMARK  194  A    between atoms: _455  and  _458
REMARK  195  A    between atoms: _458  and  _459
REMARK  196  A    between atoms: _461  and  _463
REMARK  197  A    between atoms: _463  and  _464
REMARK  198  A    between atoms: _463  and  _466
REMARK  199  A    between atoms: _466  and  _467
REMARK  200  A    between atoms: _470  and  _472
REMARK  201  A    between atoms: _472  and  _473
REMARK  202  A    between atoms: _472  and  _475
REMARK  203  A    between atoms: _475  and  _476
REMARK  204  A    between atoms: _479  and  _481
REMARK  205  A    between atoms: _481  and  _482
REMARK  206  A    between atoms: _481  and  _484
REMARK  207  A    between atoms: _484  and  _485
REMARK  208  A    between atoms: _485  and  _486
REMARK  209  A    between atoms: _486  and  _487
REMARK  210  A    between atoms: _487  and  _488
REMARK  211  A    between atoms: _492  and  _494
REMARK  212  A    between atoms: _494  and  _495
REMARK  213  A    between atoms: _497  and  _499
REMARK  214  A    between atoms: _499  and  _500
REMARK  215  A    between atoms: _499  and  _502
REMARK  216  A    between atoms: _502  and  _503
REMARK  217  A    between atoms: _508  and  _509
REMARK  218  A    between atoms: _511  and  _513
REMARK  219  A    between atoms: _513  and  _514
REMARK  220  A    between atoms: _516  and  _518
REMARK  221  A    between atoms: _518  and  _519
REMARK  222  A    between atoms: _518  and  _521
REMARK  223  A    between atoms: _521  and  _522
REMARK                            x       y       z     vdW  Elec       q    Type
REMARK                         _______ _______ _______ _____ _____    ______ ____
ROOT
ATOM      1  C   GLU A   4      46.197  50.424   3.006  0.00  0.00    +0.241 C 
ATOM      2  N   SER A   5      45.644  49.282   3.399  0.00  0.00    -0.295 N 
ATOM      3  H   SER A   5      45.379  49.156   4.397  0.00  0.00    +0.150 HD
ATOM      4  O   GLU A   4      46.262  50.751   1.821  0.00  0.00    -0.273 OA
ENDROOT
BRANCH   1   5
ATOM      5  CA  GLU A   4      46.766  51.330   4.110  0.00  0.00    +0.149 C 
BRANCH   5   7
ATOM      6  C   MET A   3      49.129  50.648   3.784  0.00  0.00    +0.241 C 
ATOM      7  N   GLU A   4      48.190  51.577   3.941  0.00  0.00    -0.297 N 
ATOM      8  H   GLU A   4      48.502  52.569   3.943  0.00  0.00    +0.150 HD
ATOM      9  O   MET A   3      48.918  49.448   3.832  0.00  0.00    -0.273 OA
BRANCH   6  10
ATOM     10  CA  MET A   3      50.537  51.199   3.520  0.00  0.00    +0.149 C 
BRANCH  10  13
ATOM     11  C   LEU A   2      52.877  50.659   3.660  0.00  0.00    +0.241 C 
ATOM     12  O   LEU A   2      53.181  51.854   3.626  0.00  0.00    -0.273 OA
ATOM     13  N   MET A   3      51.618  50.239   3.599  0.00  0.00    -0.297 N 
ATOM     14  H   MET A   3      51.409  49.220   3.608  0.00  0.00    +0.150 HD
BRANCH  11  15
ATOM     15  CA  LEU A   2      53.957  49.582   3.739  0.00  0.00    +0.149 C 
BRANCH  15  17
ATOM     16  C   LEU A   1      54.735  49.597   1.462  0.00  0.00    +0.238 C 
ATOM     17  N   LEU A   2      54.946  49.893   2.735  0.00  0.00    -0.297 N 
ATOM     18  H   LEU A   2      55.835  50.355   3.015  0.00  0.00    +0.150 HD
ATOM     19  O   LEU A   1      53.775  48.929   1.085  0.00  0.00    -0.274 OA
BRANCH  16  20
ATOM     20  CA  LEU A   1      55.773  50.111   0.477  0.00  0.00    +0.145 C 
BRANCH  20  21
ATOM     21  N   LEU A   1      56.406  49.009  -0.234  0.00  0.00    -0.238 NA
ATOM     22  H   LEU A   1      55.830  48.412  -0.862  0.00  0.00    +0.142 HD
ENDBRANCH  20  21
BRANCH  20  23
ATOM     23  CB  LEU A   1      55.123  51.084  -0.509  0.00  0.00    +0.026 C 
BRANCH  23  24
ATOM     24  CG  LEU A   1      54.250  52.205   0.061  0.00  0.00    +0.002 C 
ATOM     25  CD2 LEU A   1      55.114  53.223   0.819  0.00  0.00    +0.000 C 
ATOM     26  CD1 LEU A   1      53.492  52.889  -1.043  0.00  0.00    +0.000 C 
ENDBRANCH  23  24
ENDBRANCH  20  23
ENDBRANCH  16  20
ENDBRANCH  15  17
BRANCH  15  27
ATOM     27  CB  LEU A   2      54.608  49.564   5.119  0.00  0.00    +0.029 C 
BRANCH  27  28
ATOM     28  CG  LEU A   2      55.287  48.281   5.619  0.00  0.00    +0.002 C 
ATOM     29  CD2 LEU A   2      54.280  47.175   5.876  0.00  0.00    +0.000 C 
ATOM     30  CD1 LEU A   2      56.337  47.799   4.667  0.00  0.00    +0.000 C 
ENDBRANCH  27  28
ENDBRANCH  15  27
ENDBRANCH  11  15
ENDBRANCH  10  13
BRANCH  10  31
ATOM     31  CB  MET A   3      50.543  51.883   2.163  0.00  0.00    +0.041 C 
BRANCH  31  32
ATOM     32  CG  MET A   3      49.672  53.133   2.153  0.00  0.00    +0.060 C 
BRANCH  32  33
ATOM     33  SD  MET A   3      49.868  54.005   0.619  0.00  0.00    -0.139 S 
ATOM     34  CE  MET A   3      49.652  52.615  -0.532  0.00  0.00    +0.069 C 
ENDBRANCH  32  33
ENDBRANCH  31  32
ENDBRANCH  10  31
ENDBRANCH   6  10
ENDBRANCH   5   7
BRANCH   5  35
ATOM     35  CB  GLU A   4      46.057  52.694   4.146  0.00  0.00    +0.041 C 
BRANCH  35  36
ATOM     36  CG  GLU A   4      44.639  52.694   4.681  0.00  0.00    +0.116 C 
BRANCH  36  37
ATOM     37  CD  GLU A   4      44.361  53.867   5.610  0.00  0.00    +0.365 C 
ATOM     38  OE2 GLU A   4      45.117  54.027   6.595  0.00  0.00    -0.246 OA
ATOM     39  OE1 GLU A   4      43.386  54.623   5.367  0.00  0.00    -0.246 OA
ENDBRANCH  36  37
ENDBRANCH  35  36
ENDBRANCH   5  35
ENDBRANCH   1   5
BRANCH   2  40
ATOM     40  CA  SER A   5      45.402  48.192   2.439  0.00  0.00    +0.178 C 
BRANCH  40  41
ATOM     41  C   SER A   5      44.424  48.552   1.330  0.00  0.00    +0.243 C 
ATOM     42  N   THR A   6      43.466  49.407   1.648  0.00  0.00    -0.295 N 
ATOM     43  H   THR A   6      43.407  49.773   2.620  0.00  0.00    +0.150 HD
ATOM     44  O   SER A   5      44.543  48.071   0.202  0.00  0.00    -0.273 OA
BRANCH  42  45
ATOM     45  CA  THR A   6      42.491  49.844   0.655  0.00  0.00    +0.176 C 
BRANCH  45  46
ATOM     46  C   THR A   6      43.155  50.520  -0.551  0.00  0.00    +0.243 C 
ATOM     47  N   SER A   7      44.086  51.427  -0.275  0.00  0.00    -0.295 N 
ATOM     48  H   SER A   7      44.281  51.666   0.718  0.00  0.00    +0.150 HD
ATOM     49  O   THR A   6      42.812  50.239  -1.703  0.00  0.00    -0.273 OA
BRANCH  47  50
ATOM     50  CA  SER A   7      44.835  52.090  -1.319  0.00  0.00    +0.178 C 
BRANCH  50  51
ATOM     51  C   SER A   7      45.707  51.077  -2.038  0.00  0.00    +0.243 C 
ATOM     52  N   ILE A   8      46.278  50.131  -1.290  0.00  0.00    -0.298 N 
ATOM     53  H   ILE A   8      46.183  50.159  -0.255  0.00  0.00    +0.150 HD
ATOM     54  O   SER A   7      45.856  51.145  -3.261  0.00  0.00    -0.273 OA
BRANCH  52  55
ATOM     55  CA  ILE A   8      47.038  49.055  -1.925  0.00  0.00    +0.137 C 
BRANCH  55  56
ATOM     56  C   ILE A   8      46.181  48.284  -2.931  0.00  0.00    +0.227 C 
ATOM     57  O   ILE A   8      46.576  48.093  -4.079  0.00  0.00    -0.286 OA
ENDBRANCH  55  56
BRANCH  55  58
ATOM     58  CB  ILE A   8      47.636  48.064  -0.919  0.00  0.00    +0.026 C 
ATOM     59  CG2 ILE A   8      48.091  46.807  -1.631  0.00  0.00    +0.002 C 
BRANCH  58  60
ATOM     60  CG1 ILE A   8      48.852  48.670  -0.226  0.00  0.00    +0.002 C 
ATOM     61  CD1 ILE A   8      49.376  47.808   0.870  0.00  0.00    +0.000 C 
ENDBRANCH  58  60
ENDBRANCH  55  58
ENDBRANCH  52  55
ENDBRANCH  50  51
BRANCH  50  62
ATOM     62  CB  SER A   7      45.688  53.204  -0.734  0.00  0.00    +0.166 C 
BRANCH  62  63
ATOM     63  OG  SER A   7      44.890  54.056   0.055  0.00  0.00    -0.380 OA
ATOM     64  H   SER A   7      45.453  54.778   0.432  0.00  0.00    +0.211 HD
ENDBRANCH  62  63
ENDBRANCH  50  62
ENDBRANCH  47  50
ENDBRANCH  45  46
BRANCH  45  65
ATOM     65  CB  THR A   6      41.433  50.799   1.276  0.00  0.00    +0.137 C 
ATOM     66  CG2 THR A   6      40.432  50.017   2.069  0.00  0.00    +0.034 C 
BRANCH  65  67
ATOM     67  OG1 THR A   6      42.083  51.746   2.137  0.00  0.00    -0.382 OA
ATOM     68  HG1 THR A   6      41.406  52.352   2.530  0.00  0.00    +0.210 HD
ENDBRANCH  65  67
ENDBRANCH  45  65
ENDBRANCH  42  45
ENDBRANCH  40  41
BRANCH  40  69
ATOM     69  CB  SER A   5      44.947  46.916   3.149  0.00  0.00    +0.166 C 
BRANCH  69  70
ATOM     70  OG  SER A   5      43.719  47.120   3.827  0.00  0.00    -0.380 OA
ATOM     71  H   SER A   5      43.023  47.385   3.175  0.00  0.00    +0.211 HD
ENDBRANCH  69  70
ENDBRANCH  40  69
ENDBRANCH   2  40
TORSDOF 34
REMARK  Name = ../refined-set-2016/3s2v/3s2v_pocket.pdb
REMARK  223 active torsions:
REMARK  status: ('A' for Active; 'I' for Inactive)
REMARK    1  A    between atoms: _1  and  _3
REMARK    2  A    between atoms: _3  and  _4
REMARK    3  A    between atoms: _3  and  _6
REMARK    4  A    between atoms: _6  and  _7
REMARK    5  A    between atoms: _10  and  _12
REMARK    6  A    between atoms: _12  and  _13
REMARK    7  A    between atoms: _12  and  _15
REMARK    8  A    between atoms: _15  and  _16
REMARK    9  A    between atoms: _19  and  _21
REMARK   10  A    between atoms: _21  and  _22
REMARK   11  A    between atoms: _21  and  _24
REMARK   12  A    between atoms: _24  and  _25
REMARK   13  A    between atoms: _25  and  _26
REMARK   14  A    between atoms: _29  and  _31
REMARK   15  A    between atoms: _31  and  _32
REMARK   16  A    between atoms: _31  and  _34
REMARK   17  A    between atoms: _34  and  _35
REMARK   18  A    between atoms: _35  and  _36
REMARK   19  A    between atoms: _40  and  _41
REMARK   20  A    between atoms: _46  and  _48
REMARK   21  A    between atoms: _48  and  _49
REMARK   22  A    between atoms: _48  and  _51
REMARK   23  A    between atoms: _51  and  _52
REMARK   24  A    between atoms: _57  and  _58
REMARK   25  A    between atoms: _60  and  _62
REMARK   26  A    between atoms: _62  and  _63
REMARK   27  A    between atoms: _62  and  _65
REMARK   28  A    between atoms: _68  and  _70
REMARK   29  A    between atoms: _70  and  _71
REMARK   30  A    between atoms: _70  and  _73
REMARK   31  A    between atoms: _73  and  _74
REMARK   32  A    between atoms: _74  and  _75
REMARK   33  A    between atoms: _75  and  _76
REMARK   34  A    between atoms: _76  and  _77
REMARK   35  A    between atoms: _81  and  _83
REMARK   36  A    between atoms: _83  and  _84
REMARK   37  A    between atoms: _83  and  _86
REMARK   38  A    between atoms: _86  and  _87
REMARK   39  A    between atoms: _92  and  _93
REMARK   40  A    between atoms: _95  and  _97
REMARK   41  A    between atoms: _97  and  _98
REMARK   42  A    between atoms: _100  and  _102
REMARK   43  A    between atoms: _102  and  _103
REMARK   44  A    between atoms: _106  and  _108
REMARK   45  A    between atoms: _108  and  _109
REMARK   46  A    between atoms: _108  and  _111
REMARK   47  A    between atoms: _111  and  _112
REMARK   48  A    between atoms: _112  and  _113
REMARK   49  A    between atoms: _115  and  _117
REMARK   50  A    between atoms: _117  and  _118
REMARK   51  A    between atoms: _117  and  _120
REMARK   52  A    between atoms: _123  and  _125
REMARK   53  A    between atoms: _125  and  _126
REMARK   54  A    between atoms: _130  and  _131
REMARK   55  A    between atoms: _136  and  _138
REMARK   56  A    between atoms: _138  and  _139
REMARK   57  A    between atoms: _138  and  _141
REMARK   58  A    between atoms: _141  and  _142
REMARK   59  A    between atoms: _145  and  _147
REMARK   60  A    between atoms: _147  and  _148
REMARK   61  A    between atoms: _147  and  _150
REMARK   62  A    between atoms: _150  and  _151
REMARK   63  A    between atoms: _154  and  _156
REMARK   64  A    between atoms: _156  and  _157
REMARK   65  A    between atoms: _156  and  _159
REMARK   66  A    between atoms: _159  and  _160
REMARK   67  A    between atoms: _163  and  _165
REMARK   68  A    between atoms: _165  and  _166
REMARK   69  A    between atoms: _165  and  _168
REMARK   70  A    between atoms: _168  and  _169
REMARK   71  A    between atoms: _172  and  _174
REMARK   72  A    between atoms: _174  and  _175
REMARK   73  A    between atoms: _174  and  _177
REMARK   74  A    between atoms: _177  and  _178
REMARK   75  A    between atoms: _178  and  _179
REMARK   76  A    between atoms: _179  and  _180
REMARK   77  A    between atoms: _189  and  _191
REMARK   78  A    between atoms: _191  and  _192
REMARK   79  A    between atoms: _191  and  _194
REMARK   80  A    between atoms: _194  and  _195
REMARK   81  A    between atoms: _201  and  _203
REMARK   82  A    between atoms: _203  and  _204
REMARK   83  A    between atoms: _203  and  _206
REMARK   84  A    between atoms: _206  and  _207
REMARK   85  A    between atoms: _207  and  _208
REMARK   86  A    between atoms: _210  and  _212
REMARK   87  A    between atoms: _212  and  _213
REMARK   88  A    between atoms: _212  and  _215
REMARK   89  A    between atoms: _215  and  _216
REMARK   90  A    between atoms: _219  and  _221
REMARK   91  A    between atoms: _221  and  _222
REMARK   92  A    between atoms: _224  and  _226
REMARK   93  A    between atoms: _226  and  _227
REMARK   94  A    between atoms: _226  and  _229
REMARK   95  A    between atoms: _229  and  _230
REMARK   96  A    between atoms: _233  and  _235
REMARK   97  A    between atoms: _235  and  _236
REMARK   98  A    between atoms: _235  and  _238
REMARK   99  A    between atoms: _238  and  _239
REMARK  100  A    between atoms: _241  and  _243
REMARK  101  A    between atoms: _243  and  _244
REMARK  102  A    between atoms: _246  and  _248
REMARK  103  A    between atoms: _248  and  _249
REMARK  104  A    between atoms: _252  and  _254
REMARK  105  A    between atoms: _254  and  _255
REMARK  106  A    between atoms: _254  and  _257
REMARK  107  A    between atoms: _260  and  _262
REMARK  108  A    between atoms: _262  and  _263
REMARK  109  A    between atoms: _262  and  _265
REMARK  110  A    between atoms: _265  and  _266
REMARK  111  A    between atoms: _266  and  _267
REMARK  112  A    between atoms: _267  and  _268
REMARK  113  A    between atoms: _277  and  _279
REMARK  114  A    between atoms: _279  and  _280
REMARK  115  A    between atoms: _279  and  _282
REMARK  116  A    between atoms: _282  and  _283
REMARK  117  A    between atoms: _286  and  _288
REMARK  118  A    between atoms: _288  and  _289
REMARK  119  A    between atoms: _291  and  _293
REMARK  120  A    between atoms: _293  and  _294
REMARK  121  A    between atoms: _293  and  _296
REMARK  122  A    between atoms: _296  and  _297
REMARK  123  A    between atoms: _299  and  _301
REMARK  124  A    between atoms: _301  and  _302
REMARK  125  A    between atoms: _301  and  _304
REMARK  126  A    between atoms: _304  and  _305
REMARK  127  A    between atoms: _308  and  _310
REMARK  128  A    between atoms: _310  and  _311
REMARK  129  A    between atoms: _310  and  _313
REMARK  130  A    between atoms: _313  and  _314
REMARK  131  A    between atoms: _314  and  _315
REMARK  132  A    between atoms: _317  and  _319
REMARK  133  A    between atoms: _319  and  _320
REMARK  134  A    between atoms: _319  and  _322
REMARK  135  A    between atoms: _322  and  _323
REMARK  136  A    between atoms: _326  and  _328
REMARK  137  A    between atoms: _328  and  _329
REMARK  138  A    between atoms: _328  and  _331
REMARK  139  A    between atoms: _331  and  _332
REMARK  140  A    between atoms: _338  and  _340
REMARK  141  A    between atoms: _340  and  _341
REMARK  142  A    between atoms: _340  and  _343
REMARK  143  A    between atoms: _343  and  _344
REMARK  144  A    between atoms: _350  and  _352
REMARK  145  A    between atoms: _352  and  _353
REMARK  146  A    between atoms: _352  and  _355
REMARK  147  A    between atoms: _358  and  _360
REMARK  148  A    between atoms: _360  and  _361
REMARK  149  A    between atoms: _360  and  _363
REMARK  150  A    between atoms: _363  and  _364
REMARK  151  A    between atoms: _364  and  _365
REMARK  152  A    between atoms: _365  and  _366
REMARK  153  A    between atoms: _366  and  _367
REMARK  154  A    between atoms: _371  and  _373
REMARK  155  A    between atoms: _373  and  _374
REMARK  156  A    between atoms: _373  and  _376
REMARK  157  A    between atoms: _376  and  _377
REMARK  158  A    between atoms: _382  and  _384
REMARK  159  A    between atoms: _384  and  _385
REMARK  160  A    between atoms: _384  and  _387
REMARK  161  A    between atoms: _387  and  _388
REMARK  162  A    between atoms: _390  and  _392
REMARK  163  A    between atoms: _392  and  _393
REMARK  164  A    between atoms: _392  and  _395
REMARK  165  A    between atoms: _395  and  _396
REMARK  166  A    between atoms: _399  and  _401
REMARK  167  A    between atoms: _401  and  _402
REMARK  168  A    between atoms: _401  and  _404
REMARK  169  A    between atoms: _404  and  _405
REMARK  170  A    between atoms: _408  and  _410
REMARK  171  A    between atoms: _410  and  _411
REMARK  172  A    between atoms: _410  and  _413
REMARK  173  A    between atoms: _413  and  _414
REMARK  174  A    between atoms: _417  and  _419
REMARK  175  A    between atoms: _419  and  _420
REMARK  176  A    between atoms: _419  and  _422
REMARK  177  A    between atoms: _422  and  _423
REMARK  178  A    between atoms: _423  and  _424
REMARK  179  A    between atoms: _426  and  _428
REMARK  180  A    between atoms: _428  and  _429
REMARK  181  A    between atoms: _428  and  _431
REMARK  182  A    between atoms: _431  and  _432
REMARK  183  A    between atoms: _432  and  _433
REMARK  184  A    between atoms: _436  and  _438
REMARK  185  A    between atoms: _438  and  _439
REMARK  186  A    between atoms: _438  and  _441
REMARK  187  A    between atoms: _441  and  _442
REMARK  188  A    between atoms: _444  and  _446
REMARK  189  A    between atoms: _446  and  _447
REMARK  190  A    between atoms: _446  and  _449
REMARK  191  A    between atoms: _449  and  _450
REMARK  192  A    between atoms: _453  and  _455
REMARK  193  A    between atoms: _455  and  _456
REMARK  194  A    between atoms: _455  and  _458
REMARK  195  A    between atoms: _458  and  _459
REMARK  196  A    between atoms: _461  and  _463
REMARK  197  A    between atoms: _463  and  _464
REMARK  198  A    between atoms: _463  and  _466
REMARK  199  A    between atoms: _466  and  _467
REMARK  200  A    between atoms: _470  and  _472
REMARK  201  A    between atoms: _472  and  _473
REMARK  202  A    between atoms: _472  and  _475
REMARK  203  A    between atoms: _475  and  _476
REMARK  204  A    between atoms: _479  and  _481
REMARK  205  A    between atoms: _481  and  _482
REMARK  206  A    between atoms: _481  and  _484
REMARK  207  A    between atoms: _484  and  _485
REMARK  208  A    between atoms: _485  and  _486
REMARK  209  A    between atoms: _486  and  _487
REMARK  210  A    between atoms: _487  and  _488
REMARK  211  A    between atoms: _492  and  _494
REMARK  212  A    between atoms: _494  and  _495
REMARK  213  A    between atoms: _497  and  _499
REMARK  214  A    between atoms: _499  and  _500
REMARK  215  A    between atoms: _499  and  _502
REMARK  216  A    between atoms: _502  and  _503
REMARK  217  A    between atoms: _508  and  _509
REMARK  218  A    between atoms: _511  and  _513
REMARK  219  A    between atoms: _513  and  _514
REMARK  220  A    between atoms: _516  and  _518
REMARK  221  A    between atoms: _518  and  _519
REMARK  222  A    between atoms: _518  and  _521
REMARK  223  A    between atoms: _521  and  _522
REMARK                            x       y       z     vdW  Elec       q    Type
REMARK                         _______ _______ _______ _____ _____    ______ ____
ROOT
ATOM      1  CA  ASP A   1      46.863  46.889  12.536  0.00  0.00    +0.144 C 
ENDROOT
BRANCH   1   2
ATOM      2  N   ASP A   1      47.422  45.652  12.001  0.00  0.00    -0.239 NA
ATOM      3  H   ASP A   1      47.736  44.904  12.651  0.00  0.00    +0.142 HD
ENDBRANCH   1   2
BRANCH   1   4
ATOM      4  C   ASP A   1      45.471  47.133  11.990  0.00  0.00    +0.225 C 
ATOM      5  O   ASP A   1      45.253  48.095  11.257  0.00  0.00    -0.287 OA
ENDBRANCH   1   4
BRANCH   1   6
ATOM      6  CB  ASP A   1      47.765  48.077  12.171  0.00  0.00    +0.139 C 
BRANCH   6   7
ATOM      7  CG  ASP A   1      47.243  49.399  12.704  0.00  0.00    +0.367 C 
ATOM      8  OD2 ASP A   1      46.773  49.446  13.866  0.00  0.00    -0.246 OA
ATOM      9  OD1 ASP A   1      47.298  50.396  11.952  0.00  0.00    -0.246 OA
ENDBRANCH   6   7
ENDBRANCH   1   6
TORSDOF 4
REMARK  Name = ../refined-set-2016/3s2v/3s2v_pocket.pdb
REMARK  223 active torsions:
REMARK  status: ('A' for Active; 'I' for Inactive)
REMARK    1  A    between atoms: _1  and  _3
REMARK    2  A    between atoms: _3  and  _4
REMARK    3  A    between atoms: _3  and  _6
REMARK    4  A    between atoms: _6  and  _7
REMARK    5  A    between atoms: _10  and  _12
REMARK    6  A    between atoms: _12  and  _13
REMARK    7  A    between atoms: _12  and  _15
REMARK    8  A    between atoms: _15  and  _16
REMARK    9  A    between atoms: _19  and  _21
REMARK   10  A    between atoms: _21  and  _22
REMARK   11  A    between atoms: _21  and  _24
REMARK   12  A    between atoms: _24  and  _25
REMARK   13  A    between atoms: _25  and  _26
REMARK   14  A    between atoms: _29  and  _31
REMARK   15  A    between atoms: _31  and  _32
REMARK   16  A    between atoms: _31  and  _34
REMARK   17  A    between atoms: _34  and  _35
REMARK   18  A    between atoms: _35  and  _36
REMARK   19  A    between atoms: _40  and  _41
REMARK   20  A    between atoms: _46  and  _48
REMARK   21  A    between atoms: _48  and  _49
REMARK   22  A    between atoms: _48  and  _51
REMARK   23  A    between atoms: _51  and  _52
REMARK   24  A    between atoms: _57  and  _58
REMARK   25  A    between atoms: _60  and  _62
REMARK   26  A    between atoms: _62  and  _63
REMARK   27  A    between atoms: _62  and  _65
REMARK   28  A    between atoms: _68  and  _70
REMARK   29  A    between atoms: _70  and  _71
REMARK   30  A    between atoms: _70  and  _73
REMARK   31  A    between atoms: _73  and  _74
REMARK   32  A    between atoms: _74  and  _75
REMARK   33  A    between atoms: _75  and  _76
REMARK   34  A    between atoms: _76  and  _77
REMARK   35  A    between atoms: _81  and  _83
REMARK   36  A    between atoms: _83  and  _84
REMARK   37  A    between atoms: _83  and  _86
REMARK   38  A    between atoms: _86  and  _87
REMARK   39  A    between atoms: _92  and  _93
REMARK   40  A    between atoms: _95  and  _97
REMARK   41  A    between atoms: _97  and  _98
REMARK   42  A    between atoms: _100  and  _102
REMARK   43  A    between atoms: _102  and  _103
REMARK   44  A    between atoms: _106  and  _108
REMARK   45  A    between atoms: _108  and  _109
REMARK   46  A    between atoms: _108  and  _111
REMARK   47  A    between atoms: _111  and  _112
REMARK   48  A    between atoms: _112  and  _113
REMARK   49  A    between atoms: _115  and  _117
REMARK   50  A    between atoms: _117  and  _118
REMARK   51  A    between atoms: _117  and  _120
REMARK   52  A    between atoms: _123  and  _125
REMARK   53  A    between atoms: _125  and  _126
REMARK   54  A    between atoms: _130  and  _131
REMARK   55  A    between atoms: _136  and  _138
REMARK   56  A    between atoms: _138  and  _139
REMARK   57  A    between atoms: _138  and  _141
REMARK   58  A    between atoms: _141  and  _142
REMARK   59  A    between atoms: _145  and  _147
REMARK   60  A    between atoms: _147  and  _148
REMARK   61  A    between atoms: _147  and  _150
REMARK   62  A    between atoms: _150  and  _151
REMARK   63  A    between atoms: _154  and  _156
REMARK   64  A    between atoms: _156  and  _157
REMARK   65  A    between atoms: _156  and  _159
REMARK   66  A    between atoms: _159  and  _160
REMARK   67  A    between atoms: _163  and  _165
REMARK   68  A    between atoms: _165  and  _166
REMARK   69  A    between atoms: _165  and  _168
REMARK   70  A    between atoms: _168  and  _169
REMARK   71  A    between atoms: _172  and  _174
REMARK   72  A    between atoms: _174  and  _175
REMARK   73  A    between atoms: _174  and  _177
REMARK   74  A    between atoms: _177  and  _178
REMARK   75  A    between atoms: _178  and  _179
REMARK   76  A    between atoms: _179  and  _180
REMARK   77  A    between atoms: _189  and  _191
REMARK   78  A    between atoms: _191  and  _192
REMARK   79  A    between atoms: _191  and  _194
REMARK   80  A    between atoms: _194  and  _195
REMARK   81  A    between atoms: _201  and  _203
REMARK   82  A    between atoms: _203  and  _204
REMARK   83  A    between atoms: _203  and  _206
REMARK   84  A    between atoms: _206  and  _207
REMARK   85  A    between atoms: _207  and  _208
REMARK   86  A    between atoms: _210  and  _212
REMARK   87  A    between atoms: _212  and  _213
REMARK   88  A    between atoms: _212  and  _215
REMARK   89  A    between atoms: _215  and  _216
REMARK   90  A    between atoms: _219  and  _221
REMARK   91  A    between atoms: _221  and  _222
REMARK   92  A    between atoms: _224  and  _226
REMARK   93  A    between atoms: _226  and  _227
REMARK   94  A    between atoms: _226  and  _229
REMARK   95  A    between atoms: _229  and  _230
REMARK   96  A    between atoms: _233  and  _235
REMARK   97  A    between atoms: _235  and  _236
REMARK   98  A    between atoms: _235  and  _238
REMARK   99  A    between atoms: _238  and  _239
REMARK  100  A    between atoms: _241  and  _243
REMARK  101  A    between atoms: _243  and  _244
REMARK  102  A    between atoms: _246  and  _248
REMARK  103  A    between atoms: _248  and  _249
REMARK  104  A    between atoms: _252  and  _254
REMARK  105  A    between atoms: _254  and  _255
REMARK  106  A    between atoms: _254  and  _257
REMARK  107  A    between atoms: _260  and  _262
REMARK  108  A    between atoms: _262  and  _263
REMARK  109  A    between atoms: _262  and  _265
REMARK  110  A    between atoms: _265  and  _266
REMARK  111  A    between atoms: _266  and  _267
REMARK  112  A    between atoms: _267  and  _268
REMARK  113  A    between atoms: _277  and  _279
REMARK  114  A    between atoms: _279  and  _280
REMARK  115  A    between atoms: _279  and  _282
REMARK  116  A    between atoms: _282  and  _283
REMARK  117  A    between atoms: _286  and  _288
REMARK  118  A    between atoms: _288  and  _289
REMARK  119  A    between atoms: _291  and  _293
REMARK  120  A    between atoms: _293  and  _294
REMARK  121  A    between atoms: _293  and  _296
REMARK  122  A    between atoms: _296  and  _297
REMARK  123  A    between atoms: _299  and  _301
REMARK  124  A    between atoms: _301  and  _302
REMARK  125  A    between atoms: _301  and  _304
REMARK  126  A    between atoms: _304  and  _305
REMARK  127  A    between atoms: _308  and  _310
REMARK  128  A    between atoms: _310  and  _311
REMARK  129  A    between atoms: _310  and  _313
REMARK  130  A    between atoms: _313  and  _314
REMARK  131  A    between atoms: _314  and  _315
REMARK  132  A    between atoms: _317  and  _319
REMARK  133  A    between atoms: _319  and  _320
REMARK  134  A    between atoms: _319  and  _322
REMARK  135  A    between atoms: _322  and  _323
REMARK  136  A    between atoms: _326  and  _328
REMARK  137  A    between atoms: _328  and  _329
REMARK  138  A    between atoms: _328  and  _331
REMARK  139  A    between atoms: _331  and  _332
REMARK  140  A    between atoms: _338  and  _340
REMARK  141  A    between atoms: _340  and  _341
REMARK  142  A    between atoms: _340  and  _343
REMARK  143  A    between atoms: _343  and  _344
REMARK  144  A    between atoms: _350  and  _352
REMARK  145  A    between atoms: _352  and  _353
REMARK  146  A    between atoms: _352  and  _355
REMARK  147  A    between atoms: _358  and  _360
REMARK  148  A    between atoms: _360  and  _361
REMARK  149  A    between atoms: _360  and  _363
REMARK  150  A    between atoms: _363  and  _364
REMARK  151  A    between atoms: _364  and  _365
REMARK  152  A    between atoms: _365  and  _366
REMARK  153  A    between atoms: _366  and  _367
REMARK  154  A    between atoms: _371  and  _373
REMARK  155  A    between atoms: _373  and  _374
REMARK  156  A    between atoms: _373  and  _376
REMARK  157  A    between atoms: _376  and  _377
REMARK  158  A    between atoms: _382  and  _384
REMARK  159  A    between atoms: _384  and  _385
REMARK  160  A    between atoms: _384  and  _387
REMARK  161  A    between atoms: _387  and  _388
REMARK  162  A    between atoms: _390  and  _392
REMARK  163  A    between atoms: _392  and  _393
REMARK  164  A    between atoms: _392  and  _395
REMARK  165  A    between atoms: _395  and  _396
REMARK  166  A    between atoms: _399  and  _401
REMARK  167  A    between atoms: _401  and  _402
REMARK  168  A    between atoms: _401  and  _404
REMARK  169  A    between atoms: _404  and  _405
REMARK  170  A    between atoms: _408  and  _410
REMARK  171  A    between atoms: _410  and  _411
REMARK  172  A    between atoms: _410  and  _413
REMARK  173  A    between atoms: _413  and  _414
REMARK  174  A    between atoms: _417  and  _419
REMARK  175  A    between atoms: _419  and  _420
REMARK  176  A    between atoms: _419  and  _422
REMARK  177  A    between atoms: _422  and  _423
REMARK  178  A    between atoms: _423  and  _424
REMARK  179  A    between atoms: _426  and  _428
REMARK  180  A    between atoms: _428  and  _429
REMARK  181  A    between atoms: _428  and  _431
REMARK  182  A    between atoms: _431  and  _432
REMARK  183  A    between atoms: _432  and  _433
REMARK  184  A    between atoms: _436  and  _438
REMARK  185  A    between atoms: _438  and  _439
REMARK  186  A    between atoms: _438  and  _441
REMARK  187  A    between atoms: _441  and  _442
REMARK  188  A    between atoms: _444  and  _446
REMARK  189  A    between atoms: _446  and  _447
REMARK  190  A    between atoms: _446  and  _449
REMARK  191  A    between atoms: _449  and  _450
REMARK  192  A    between atoms: _453  and  _455
REMARK  193  A    between atoms: _455  and  _456
REMARK  194  A    between atoms: _455  and  _458
REMARK  195  A    between atoms: _458  and  _459
REMARK  196  A    between atoms: _461  and  _463
REMARK  197  A    between atoms: _463  and  _464
REMARK  198  A    between atoms: _463  and  _466
REMARK  199  A    between atoms: _466  and  _467
REMARK  200  A    between atoms: _470  and  _472
REMARK  201  A    between atoms: _472  and  _473
REMARK  202  A    between atoms: _472  and  _475
REMARK  203  A    between atoms: _475  and  _476
REMARK  204  A    between atoms: _479  and  _481
REMARK  205  A    between atoms: _481  and  _482
REMARK  206  A    between atoms: _481  and  _484
REMARK  207  A    between atoms: _484  and  _485
REMARK  208  A    between atoms: _485  and  _486
REMARK  209  A    between atoms: _486  and  _487
REMARK  210  A    between atoms: _487  and  _488
REMARK  211  A    between atoms: _492  and  _494
REMARK  212  A    between atoms: _494  and  _495
REMARK  213  A    between atoms: _497  and  _499
REMARK  214  A    between atoms: _499  and  _500
REMARK  215  A    between atoms: _499  and  _502
REMARK  216  A    between atoms: _502  and  _503
REMARK  217  A    between atoms: _508  and  _509
REMARK  218  A    between atoms: _511  and  _513
REMARK  219  A    between atoms: _513  and  _514
REMARK  220  A    between atoms: _516  and  _518
REMARK  221  A    between atoms: _518  and  _519
REMARK  222  A    between atoms: _518  and  _521
REMARK  223  A    between atoms: _521  and  _522
REMARK                            x       y       z     vdW  Elec       q    Type
REMARK                         _______ _______ _______ _____ _____    ______ ____
ROOT
ATOM      1  C   GLY A   2      37.549  52.218   9.631  0.00  0.00    +0.243 C 
ATOM      2  O   GLY A   2      37.796  53.067  10.486  0.00  0.00    -0.273 OA
ATOM      3  N   TYR A   3      36.882  52.473   8.518  0.00  0.00    -0.297 N 
ATOM      4  H   TYR A   3      36.726  51.702   7.837  0.00  0.00    +0.150 HD
ENDROOT
BRANCH   1   5
ATOM      5  CA  GLY A   2      37.986  50.790   9.794  0.00  0.00    +0.176 C 
BRANCH   5   7
ATOM      6  C   LYS A   1      39.889  49.569  10.592  0.00  0.00    +0.238 C 
ATOM      7  N   GLY A   2      39.070  50.604  10.729  0.00  0.00    -0.296 N 
ATOM      8  H   GLY A   2      39.209  51.279  11.508  0.00  0.00    +0.150 HD
ATOM      9  O   LYS A   1      39.796  48.751   9.670  0.00  0.00    -0.274 OA
BRANCH   6  10
ATOM     10  CA  LYS A   1      40.979  49.436  11.627  0.00  0.00    +0.145 C 
BRANCH  10  11
ATOM     11  N   LYS A   1      41.670  48.189  11.379  0.00  0.00    -0.238 NA
ATOM     12  H   LYS A   1      41.508  47.686  10.483  0.00  0.00    +0.142 HD
ENDBRANCH  10  11
BRANCH  10  13
ATOM     13  CB  LYS A   1      41.949  50.621  11.531  0.00  0.00    +0.026 C 
BRANCH  13  14
ATOM     14  CG  LYS A   1      42.650  50.781  10.183  0.00  0.00    -0.000 C 
BRANCH  14  15
ATOM     15  CD  LYS A   1      43.966  51.540  10.373  0.00  0.00    -0.024 C 
BRANCH  15  16
ATOM     16  CE  LYS A   1      44.787  51.641   9.100  0.00  0.00    -0.086 C 
BRANCH  16  17
ATOM     17  NZ  LYS A   1      46.118  52.201   9.438  0.00  0.00    +0.380 N 
ATOM     18  HZ1 LYS A   1      46.594  51.574  10.118  0.00  0.00    -0.089 HD
ATOM     19  HZ2 LYS A   1      45.999  53.145   9.859  0.00  0.00    -0.089 HD
ATOM     20  HZ3 LYS A   1      46.691  52.275   8.573  0.00  0.00    -0.089 HD
ENDBRANCH  16  17
ENDBRANCH  15  16
ENDBRANCH  14  15
ENDBRANCH  13  14
ENDBRANCH  10  13
ENDBRANCH   6  10
ENDBRANCH   5   7
ENDBRANCH   1   5
BRANCH   3  21
ATOM     21  CA  TYR A   3      36.363  53.785   8.217  0.00  0.00    +0.153 C 
BRANCH  21  22
ATOM     22  C   TYR A   3      34.935  53.864   8.681  0.00  0.00    +0.241 C 
ATOM     23  N   GLY A   4      34.600  54.949   9.375  0.00  0.00    -0.296 N 
ATOM     24  H   GLY A   4      35.336  55.626   9.660  0.00  0.00    +0.150 HD
ATOM     25  O   TYR A   3      34.127  52.982   8.360  0.00  0.00    -0.273 OA
BRANCH  23  26
ATOM     26  CA  GLY A   4      33.217  55.195   9.737  0.00  0.00    +0.163 C 
BRANCH  26  27
ATOM     27  C   GLY A   4      32.697  56.546   9.310  0.00  0.00    +0.229 C 
ATOM     28  O   GLY A   4      33.466  57.440   8.964  0.00  0.00    -0.286 OA
ENDBRANCH  26  27
ENDBRANCH  23  26
ENDBRANCH  21  22
BRANCH  21  29
ATOM     29  CB  TYR A   3      36.330  53.997   6.712  0.00  0.00    +0.055 C 
BRANCH  29  30
ATOM     30  CG  TYR A   3      37.646  53.890   6.016  0.00  0.00    -0.020 A 
ATOM     31  CD2 TYR A   3      38.810  54.340   6.613  0.00  0.00    -0.001 A 
ATOM     32  CE2 TYR A   3      40.018  54.253   5.954  0.00  0.00    +0.036 A 
ATOM     33  CZ  TYR A   3      40.051  53.726   4.667  0.00  0.00    +0.134 A 
ATOM     34  CE1 TYR A   3      38.908  53.280   4.062  0.00  0.00    +0.036 A 
ATOM     35  CD1 TYR A   3      37.714  53.369   4.732  0.00  0.00    -0.001 A 
BRANCH  33  36
ATOM     36  OH  TYR A   3      41.230  53.626   3.988  0.00  0.00    -0.506 OA
ATOM     37  HH  TYR A   3      41.963  53.986   4.547  0.00  0.00    +0.292 HD
ENDBRANCH  33  36
ENDBRANCH  29  30
ENDBRANCH  21  29
ENDBRANCH   3  21
TORSDOF 16
REMARK  Name = ../refined-set-2016/3s2v/3s2v_pocket.pdb
REMARK  223 active torsions:
REMARK  status: ('A' for Active; 'I' for Inactive)
REMARK    1  A    between atoms: _1  and  _3
REMARK    2  A    between atoms: _3  and  _4
REMARK    3  A    between atoms: _3  and  _6
REMARK    4  A    between atoms: _6  and  _7
REMARK    5  A    between atoms: _10  and  _12
REMARK    6  A    between atoms: _12  and  _13
REMARK    7  A    between atoms: _12  and  _15
REMARK    8  A    between atoms: _15  and  _16
REMARK    9  A    between atoms: _19  and  _21
REMARK   10  A    between atoms: _21  and  _22
REMARK   11  A    between atoms: _21  and  _24
REMARK   12  A    between atoms: _24  and  _25
REMARK   13  A    between atoms: _25  and  _26
REMARK   14  A    between atoms: _29  and  _31
REMARK   15  A    between atoms: _31  and  _32
REMARK   16  A    between atoms: _31  and  _34
REMARK   17  A    between atoms: _34  and  _35
REMARK   18  A    between atoms: _35  and  _36
REMARK   19  A    between atoms: _40  and  _41
REMARK   20  A    between atoms: _46  and  _48
REMARK   21  A    between atoms: _48  and  _49
REMARK   22  A    between atoms: _48  and  _51
REMARK   23  A    between atoms: _51  and  _52
REMARK   24  A    between atoms: _57  and  _58
REMARK   25  A    between atoms: _60  and  _62
REMARK   26  A    between atoms: _62  and  _63
REMARK   27  A    between atoms: _62  and  _65
REMARK   28  A    between atoms: _68  and  _70
REMARK   29  A    between atoms: _70  and  _71
REMARK   30  A    between atoms: _70  and  _73
REMARK   31  A    between atoms: _73  and  _74
REMARK   32  A    between atoms: _74  and  _75
REMARK   33  A    between atoms: _75  and  _76
REMARK   34  A    between atoms: _76  and  _77
REMARK   35  A    between atoms: _81  and  _83
REMARK   36  A    between atoms: _83  and  _84
REMARK   37  A    between atoms: _83  and  _86
REMARK   38  A    between atoms: _86  and  _87
REMARK   39  A    between atoms: _92  and  _93
REMARK   40  A    between atoms: _95  and  _97
REMARK   41  A    between atoms: _97  and  _98
REMARK   42  A    between atoms: _100  and  _102
REMARK   43  A    between atoms: _102  and  _103
REMARK   44  A    between atoms: _106  and  _108
REMARK   45  A    between atoms: _108  and  _109
REMARK   46  A    between atoms: _108  and  _111
REMARK   47  A    between atoms: _111  and  _112
REMARK   48  A    between atoms: _112  and  _113
REMARK   49  A    between atoms: _115  and  _117
REMARK   50  A    between atoms: _117  and  _118
REMARK   51  A    between atoms: _117  and  _120
REMARK   52  A    between atoms: _123  and  _125
REMARK   53  A    between atoms: _125  and  _126
REMARK   54  A    between atoms: _130  and  _131
REMARK   55  A    between atoms: _136  and  _138
REMARK   56  A    between atoms: _138  and  _139
REMARK   57  A    between atoms: _138  and  _141
REMARK   58  A    between atoms: _141  and  _142
REMARK   59  A    between atoms: _145  and  _147
REMARK   60  A    between atoms: _147  and  _148
REMARK   61  A    between atoms: _147  and  _150
REMARK   62  A    between atoms: _150  and  _151
REMARK   63  A    between atoms: _154  and  _156
REMARK   64  A    between atoms: _156  and  _157
REMARK   65  A    between atoms: _156  and  _159
REMARK   66  A    between atoms: _159  and  _160
REMARK   67  A    between atoms: _163  and  _165
REMARK   68  A    between atoms: _165  and  _166
REMARK   69  A    between atoms: _165  and  _168
REMARK   70  A    between atoms: _168  and  _169
REMARK   71  A    between atoms: _172  and  _174
REMARK   72  A    between atoms: _174  and  _175
REMARK   73  A    between atoms: _174  and  _177
REMARK   74  A    between atoms: _177  and  _178
REMARK   75  A    between atoms: _178  and  _179
REMARK   76  A    between atoms: _179  and  _180
REMARK   77  A    between atoms: _189  and  _191
REMARK   78  A    between atoms: _191  and  _192
REMARK   79  A    between atoms: _191  and  _194
REMARK   80  A    between atoms: _194  and  _195
REMARK   81  A    between atoms: _201  and  _203
REMARK   82  A    between atoms: _203  and  _204
REMARK   83  A    between atoms: _203  and  _206
REMARK   84  A    between atoms: _206  and  _207
REMARK   85  A    between atoms: _207  and  _208
REMARK   86  A    between atoms: _210  and  _212
REMARK   87  A    between atoms: _212  and  _213
REMARK   88  A    between atoms: _212  and  _215
REMARK   89  A    between atoms: _215  and  _216
REMARK   90  A    between atoms: _219  and  _221
REMARK   91  A    between atoms: _221  and  _222
REMARK   92  A    between atoms: _224  and  _226
REMARK   93  A    between atoms: _226  and  _227
REMARK   94  A    between atoms: _226  and  _229
REMARK   95  A    between atoms: _229  and  _230
REMARK   96  A    between atoms: _233  and  _235
REMARK   97  A    between atoms: _235  and  _236
REMARK   98  A    between atoms: _235  and  _238
REMARK   99  A    between atoms: _238  and  _239
REMARK  100  A    between atoms: _241  and  _243
REMARK  101  A    between atoms: _243  and  _244
REMARK  102  A    between atoms: _246  and  _248
REMARK  103  A    between atoms: _248  and  _249
REMARK  104  A    between atoms: _252  and  _254
REMARK  105  A    between atoms: _254  and  _255
REMARK  106  A    between atoms: _254  and  _257
REMARK  107  A    between atoms: _260  and  _262
REMARK  108  A    between atoms: _262  and  _263
REMARK  109  A    between atoms: _262  and  _265
REMARK  110  A    between atoms: _265  and  _266
REMARK  111  A    between atoms: _266  and  _267
REMARK  112  A    between atoms: _267  and  _268
REMARK  113  A    between atoms: _277  and  _279
REMARK  114  A    between atoms: _279  and  _280
REMARK  115  A    between atoms: _279  and  _282
REMARK  116  A    between atoms: _282  and  _283
REMARK  117  A    between atoms: _286  and  _288
REMARK  118  A    between atoms: _288  and  _289
REMARK  119  A    between atoms: _291  and  _293
REMARK  120  A    between atoms: _293  and  _294
REMARK  121  A    between atoms: _293  and  _296
REMARK  122  A    between atoms: _296  and  _297
REMARK  123  A    between atoms: _299  and  _301
REMARK  124  A    between atoms: _301  and  _302
REMARK  125  A    between atoms: _301  and  _304
REMARK  126  A    between atoms: _304  and  _305
REMARK  127  A    between atoms: _308  and  _310
REMARK  128  A    between atoms: _310  and  _311
REMARK  129  A    between atoms: _310  and  _313
REMARK  130  A    between atoms: _313  and  _314
REMARK  131  A    between atoms: _314  and  _315
REMARK  132  A    between atoms: _317  and  _319
REMARK  133  A    between atoms: _319  and  _320
REMARK  134  A    between atoms: _319  and  _322
REMARK  135  A    between atoms: _322  and  _323
REMARK  136  A    between atoms: _326  and  _328
REMARK  137  A    between atoms: _328  and  _329
REMARK  138  A    between atoms: _328  and  _331
REMARK  139  A    between atoms: _331  and  _332
REMARK  140  A    between atoms: _338  and  _340
REMARK  141  A    between atoms: _340  and  _341
REMARK  142  A    between atoms: _340  and  _343
REMARK  143  A    between atoms: _343  and  _344
REMARK  144  A    between atoms: _350  and  _352
REMARK  145  A    between atoms: _352  and  _353
REMARK  146  A    between atoms: _352  and  _355
REMARK  147  A    between atoms: _358  and  _360
REMARK  148  A    between atoms: _360  and  _361
REMARK  149  A    between atoms: _360  and  _363
REMARK  150  A    between atoms: _363  and  _364
REMARK  151  A    between atoms: _364  and  _365
REMARK  152  A    between atoms: _365  and  _366
REMARK  153  A    between atoms: _366  and  _367
REMARK  154  A    between atoms: _371  and  _373
REMARK  155  A    between atoms: _373  and  _374
REMARK  156  A    between atoms: _373  and  _376
REMARK  157  A    between atoms: _376  and  _377
REMARK  158  A    between atoms: _382  and  _384
REMARK  159  A    between atoms: _384  and  _385
REMARK  160  A    between atoms: _384  and  _387
REMARK  161  A    between atoms: _387  and  _388
REMARK  162  A    between atoms: _390  and  _392
REMARK  163  A    between atoms: _392  and  _393
REMARK  164  A    between atoms: _392  and  _395
REMARK  165  A    between atoms: _395  and  _396
REMARK  166  A    between atoms: _399  and  _401
REMARK  167  A    between atoms: _401  and  _402
REMARK  168  A    between atoms: _401  and  _404
REMARK  169  A    between atoms: _404  and  _405
REMARK  170  A    between atoms: _408  and  _410
REMARK  171  A    between atoms: _410  and  _411
REMARK  172  A    between atoms: _410  and  _413
REMARK  173  A    between atoms: _413  and  _414
REMARK  174  A    between atoms: _417  and  _419
REMARK  175  A    between atoms: _419  and  _420
REMARK  176  A    between atoms: _419  and  _422
REMARK  177  A    between atoms: _422  and  _423
REMARK  178  A    between atoms: _423  and  _424
REMARK  179  A    between atoms: _426  and  _428
REMARK  180  A    between atoms: _428  and  _429
REMARK  181  A    between atoms: _428  and  _431
REMARK  182  A    between atoms: _431  and  _432
REMARK  183  A    between atoms: _432  and  _433
REMARK  184  A    between atoms: _436  and  _438
REMARK  185  A    between atoms: _438  and  _439
REMARK  186  A    between atoms: _438  and  _441
REMARK  187  A    between atoms: _441  and  _442
REMARK  188  A    between atoms: _444  and  _446
REMARK  189  A    between atoms: _446  and  _447
REMARK  190  A    between atoms: _446  and  _449
REMARK  191  A    between atoms: _449  and  _450
REMARK  192  A    between atoms: _453  and  _455
REMARK  193  A    between atoms: _455  and  _456
REMARK  194  A    between atoms: _455  and  _458
REMARK  195  A    between atoms: _458  and  _459
REMARK  196  A    between atoms: _461  and  _463
REMARK  197  A    between atoms: _463  and  _464
REMARK  198  A    between atoms: _463  and  _466
REMARK  199  A    between atoms: _466  and  _467
REMARK  200  A    between atoms: _470  and  _472
REMARK  201  A    between atoms: _472  and  _473
REMARK  202  A    between atoms: _472  and  _475
REMARK  203  A    between atoms: _475  and  _476
REMARK  204  A    between atoms: _479  and  _481
REMARK  205  A    between atoms: _481  and  _482
REMARK  206  A    between atoms: _481  and  _484
REMARK  207  A    between atoms: _484  and  _485
REMARK  208  A    between atoms: _485  and  _486
REMARK  209  A    between atoms: _486  and  _487
REMARK  210  A    between atoms: _487  and  _488
REMARK  211  A    between atoms: _492  and  _494
REMARK  212  A    between atoms: _494  and  _495
REMARK  213  A    between atoms: _497  and  _499
REMARK  214  A    between atoms: _499  and  _500
REMARK  215  A    between atoms: _499  and  _502
REMARK  216  A    between atoms: _502  and  _503
REMARK  217  A    between atoms: _508  and  _509
REMARK  218  A    between atoms: _511  and  _513
REMARK  219  A    between atoms: _513  and  _514
REMARK  220  A    between atoms: _516  and  _518
REMARK  221  A    between atoms: _518  and  _519
REMARK  222  A    between atoms: _518  and  _521
REMARK  223  A    between atoms: _521  and  _522
REMARK                            x       y       z     vdW  Elec       q    Type
REMARK                         _______ _______ _______ _____ _____    ______ ____
ROOT
ATOM      1  CG  TRP A   1      38.703  49.274  -4.600  0.00  0.00    -0.002 A 
ATOM      2  CD2 TRP A   1      38.092  50.286  -3.784  0.00  0.00    +0.013 A 
ATOM      3  CE2 TRP A   1      39.047  50.686  -2.835  0.00  0.00    +0.056 A 
ATOM      4  CZ2 TRP A   1      38.780  51.658  -1.862  0.00  0.00    +0.017 A 
ATOM      5  CH2 TRP A   1      37.544  52.227  -1.864  0.00  0.00    +0.001 A 
ATOM      6  CZ3 TRP A   1      36.566  51.848  -2.797  0.00  0.00    +0.000 A 
ATOM      7  NE1 TRP A   1      40.183  49.956  -3.069  0.00  0.00    -0.352 N 
ATOM      8  HE1 TRP A   1      41.067  50.026  -2.525  0.00  0.00    +0.166 HD
ATOM      9  CE3 TRP A   1      36.824  50.879  -3.756  0.00  0.00    +0.001 A 
ATOM     10  CD1 TRP A   1      39.971  49.121  -4.130  0.00  0.00    +0.068 A 
ENDROOT
BRANCH   1  11
ATOM     11  CB  TRP A   1      38.077  48.540  -5.750  0.00  0.00    +0.053 C 
BRANCH  11  12
ATOM     12  CA  TRP A   1      37.959  49.382  -7.018  0.00  0.00    +0.137 C 
BRANCH  12  13
ATOM     13  N   TRP A   1      36.590  49.834  -7.195  0.00  0.00    -0.239 NA
ATOM     14  H   TRP A   1      35.802  49.194  -6.968  0.00  0.00    +0.142 HD
ENDBRANCH  12  13
BRANCH  12  15
ATOM     15  C   TRP A   1      38.476  48.616  -8.232  0.00  0.00    +0.224 C 
ATOM     16  O   TRP A   1      39.659  48.692  -8.557  0.00  0.00    -0.287 OA
ENDBRANCH  12  15
ENDBRANCH  11  12
ENDBRANCH   1  11
TORSDOF 4
REMARK  Name = ../refined-set-2016/3s2v/3s2v_pocket.pdb
REMARK  223 active torsions:
REMARK  status: ('A' for Active; 'I' for Inactive)
REMARK    1  A    between atoms: _1  and  _3
REMARK    2  A    between atoms: _3  and  _4
REMARK    3  A    between atoms: _3  and  _6
REMARK    4  A    between atoms: _6  and  _7
REMARK    5  A    between atoms: _10  and  _12
REMARK    6  A    between atoms: _12  and  _13
REMARK    7  A    between atoms: _12  and  _15
REMARK    8  A    between atoms: _15  and  _16
REMARK    9  A    between atoms: _19  and  _21
REMARK   10  A    between atoms: _21  and  _22
REMARK   11  A    between atoms: _21  and  _24
REMARK   12  A    between atoms: _24  and  _25
REMARK   13  A    between atoms: _25  and  _26
REMARK   14  A    between atoms: _29  and  _31
REMARK   15  A    between atoms: _31  and  _32
REMARK   16  A    between atoms: _31  and  _34
REMARK   17  A    between atoms: _34  and  _35
REMARK   18  A    between atoms: _35  and  _36
REMARK   19  A    between atoms: _40  and  _41
REMARK   20  A    between atoms: _46  and  _48
REMARK   21  A    between atoms: _48  and  _49
REMARK   22  A    between atoms: _48  and  _51
REMARK   23  A    between atoms: _51  and  _52
REMARK   24  A    between atoms: _57  and  _58
REMARK   25  A    between atoms: _60  and  _62
REMARK   26  A    between atoms: _62  and  _63
REMARK   27  A    between atoms: _62  and  _65
REMARK   28  A    between atoms: _68  and  _70
REMARK   29  A    between atoms: _70  and  _71
REMARK   30  A    between atoms: _70  and  _73
REMARK   31  A    between atoms: _73  and  _74
REMARK   32  A    between atoms: _74  and  _75
REMARK   33  A    between atoms: _75  and  _76
REMARK   34  A    between atoms: _76  and  _77
REMARK   35  A    between atoms: _81  and  _83
REMARK   36  A    between atoms: _83  and  _84
REMARK   37  A    between atoms: _83  and  _86
REMARK   38  A    between atoms: _86  and  _87
REMARK   39  A    between atoms: _92  and  _93
REMARK   40  A    between atoms: _95  and  _97
REMARK   41  A    between atoms: _97  and  _98
REMARK   42  A    between atoms: _100  and  _102
REMARK   43  A    between atoms: _102  and  _103
REMARK   44  A    between atoms: _106  and  _108
REMARK   45  A    between atoms: _108  and  _109
REMARK   46  A    between atoms: _108  and  _111
REMARK   47  A    between atoms: _111  and  _112
REMARK   48  A    between atoms: _112  and  _113
REMARK   49  A    between atoms: _115  and  _117
REMARK   50  A    between atoms: _117  and  _118
REMARK   51  A    between atoms: _117  and  _120
REMARK   52  A    between atoms: _123  and  _125
REMARK   53  A    between atoms: _125  and  _126
REMARK   54  A    between atoms: _130  and  _131
REMARK   55  A    between atoms: _136  and  _138
REMARK   56  A    between atoms: _138  and  _139
REMARK   57  A    between atoms: _138  and  _141
REMARK   58  A    between atoms: _141  and  _142
REMARK   59  A    between atoms: _145  and  _147
REMARK   60  A    between atoms: _147  and  _148
REMARK   61  A    between atoms: _147  and  _150
REMARK   62  A    between atoms: _150  and  _151
REMARK   63  A    between atoms: _154  and  _156
REMARK   64  A    between atoms: _156  and  _157
REMARK   65  A    between atoms: _156  and  _159
REMARK   66  A    between atoms: _159  and  _160
REMARK   67  A    between atoms: _163  and  _165
REMARK   68  A    between atoms: _165  and  _166
REMARK   69  A    between atoms: _165  and  _168
REMARK   70  A    between atoms: _168  and  _169
REMARK   71  A    between atoms: _172  and  _174
REMARK   72  A    between atoms: _174  and  _175
REMARK   73  A    between atoms: _174  and  _177
REMARK   74  A    between atoms: _177  and  _178
REMARK   75  A    between atoms: _178  and  _179
REMARK   76  A    between atoms: _179  and  _180
REMARK   77  A    between atoms: _189  and  _191
REMARK   78  A    between atoms: _191  and  _192
REMARK   79  A    between atoms: _191  and  _194
REMARK   80  A    between atoms: _194  and  _195
REMARK   81  A    between atoms: _201  and  _203
REMARK   82  A    between atoms: _203  and  _204
REMARK   83  A    between atoms: _203  and  _206
REMARK   84  A    between atoms: _206  and  _207
REMARK   85  A    between atoms: _207  and  _208
REMARK   86  A    between atoms: _210  and  _212
REMARK   87  A    between atoms: _212  and  _213
REMARK   88  A    between atoms: _212  and  _215
REMARK   89  A    between atoms: _215  and  _216
REMARK   90  A    between atoms: _219  and  _221
REMARK   91  A    between atoms: _221  and  _222
REMARK   92  A    between atoms: _224  and  _226
REMARK   93  A    between atoms: _226  and  _227
REMARK   94  A    between atoms: _226  and  _229
REMARK   95  A    between atoms: _229  and  _230
REMARK   96  A    between atoms: _233  and  _235
REMARK   97  A    between atoms: _235  and  _236
REMARK   98  A    between atoms: _235  and  _238
REMARK   99  A    between atoms: _238  and  _239
REMARK  100  A    between atoms: _241  and  _243
REMARK  101  A    between atoms: _243  and  _244
REMARK  102  A    between atoms: _246  and  _248
REMARK  103  A    between atoms: _248  and  _249
REMARK  104  A    between atoms: _252  and  _254
REMARK  105  A    between atoms: _254  and  _255
REMARK  106  A    between atoms: _254  and  _257
REMARK  107  A    between atoms: _260  and  _262
REMARK  108  A    between atoms: _262  and  _263
REMARK  109  A    between atoms: _262  and  _265
REMARK  110  A    between atoms: _265  and  _266
REMARK  111  A    between atoms: _266  and  _267
REMARK  112  A    between atoms: _267  and  _268
REMARK  113  A    between atoms: _277  and  _279
REMARK  114  A    between atoms: _279  and  _280
REMARK  115  A    between atoms: _279  and  _282
REMARK  116  A    between atoms: _282  and  _283
REMARK  117  A    between atoms: _286  and  _288
REMARK  118  A    between atoms: _288  and  _289
REMARK  119  A    between atoms: _291  and  _293
REMARK  120  A    between atoms: _293  and  _294
REMARK  121  A    between atoms: _293  and  _296
REMARK  122  A    between atoms: _296  and  _297
REMARK  123  A    between atoms: _299  and  _301
REMARK  124  A    between atoms: _301  and  _302
REMARK  125  A    between atoms: _301  and  _304
REMARK  126  A    between atoms: _304  and  _305
REMARK  127  A    between atoms: _308  and  _310
REMARK  128  A    between atoms: _310  and  _311
REMARK  129  A    between atoms: _310  and  _313
REMARK  130  A    between atoms: _313  and  _314
REMARK  131  A    between atoms: _314  and  _315
REMARK  132  A    between atoms: _317  and  _319
REMARK  133  A    between atoms: _319  and  _320
REMARK  134  A    between atoms: _319  and  _322
REMARK  135  A    between atoms: _322  and  _323
REMARK  136  A    between atoms: _326  and  _328
REMARK  137  A    between atoms: _328  and  _329
REMARK  138  A    between atoms: _328  and  _331
REMARK  139  A    between atoms: _331  and  _332
REMARK  140  A    between atoms: _338  and  _340
REMARK  141  A    between atoms: _340  and  _341
REMARK  142  A    between atoms: _340  and  _343
REMARK  143  A    between atoms: _343  and  _344
REMARK  144  A    between atoms: _350  and  _352
REMARK  145  A    between atoms: _352  and  _353
REMARK  146  A    between atoms: _352  and  _355
REMARK  147  A    between atoms: _358  and  _360
REMARK  148  A    between atoms: _360  and  _361
REMARK  149  A    between atoms: _360  and  _363
REMARK  150  A    between atoms: _363  and  _364
REMARK  151  A    between atoms: _364  and  _365
REMARK  152  A    between atoms: _365  and  _366
REMARK  153  A    between atoms: _366  and  _367
REMARK  154  A    between atoms: _371  and  _373
REMARK  155  A    between atoms: _373  and  _374
REMARK  156  A    between atoms: _373  and  _376
REMARK  157  A    between atoms: _376  and  _377
REMARK  158  A    between atoms: _382  and  _384
REMARK  159  A    between atoms: _384  and  _385
REMARK  160  A    between atoms: _384  and  _387
REMARK  161  A    between atoms: _387  and  _388
REMARK  162  A    between atoms: _390  and  _392
REMARK  163  A    between atoms: _392  and  _393
REMARK  164  A    between atoms: _392  and  _395
REMARK  165  A    between atoms: _395  and  _396
REMARK  166  A    between atoms: _399  and  _401
REMARK  167  A    between atoms: _401  and  _402
REMARK  168  A    between atoms: _401  and  _404
REMARK  169  A    between atoms: _404  and  _405
REMARK  170  A    between atoms: _408  and  _410
REMARK  171  A    between atoms: _410  and  _411
REMARK  172  A    between atoms: _410  and  _413
REMARK  173  A    between atoms: _413  and  _414
REMARK  174  A    between atoms: _417  and  _419
REMARK  175  A    between atoms: _419  and  _420
REMARK  176  A    between atoms: _419  and  _422
REMARK  177  A    between atoms: _422  and  _423
REMARK  178  A    between atoms: _423  and  _424
REMARK  179  A    between atoms: _426  and  _428
REMARK  180  A    between atoms: _428  and  _429
REMARK  181  A    between atoms: _428  and  _431
REMARK  182  A    between atoms: _431  and  _432
REMARK  183  A    between atoms: _432  and  _433
REMARK  184  A    between atoms: _436  and  _438
REMARK  185  A    between atoms: _438  and  _439
REMARK  186  A    between atoms: _438  and  _441
REMARK  187  A    between atoms: _441  and  _442
REMARK  188  A    between atoms: _444  and  _446
REMARK  189  A    between atoms: _446  and  _447
REMARK  190  A    between atoms: _446  and  _449
REMARK  191  A    between atoms: _449  and  _450
REMARK  192  A    between atoms: _453  and  _455
REMARK  193  A    between atoms: _455  and  _456
REMARK  194  A    between atoms: _455  and  _458
REMARK  195  A    between atoms: _458  and  _459
REMARK  196  A    between atoms: _461  and  _463
REMARK  197  A    between atoms: _463  and  _464
REMARK  198  A    between atoms: _463  and  _466
REMARK  199  A    between atoms: _466  and  _467
REMARK  200  A    between atoms: _470  and  _472
REMARK  201  A    between atoms: _472  and  _473
REMARK  202  A    between atoms: _472  and  _475
REMARK  203  A    between atoms: _475  and  _476
REMARK  204  A    between atoms: _479  and  _481
REMARK  205  A    between atoms: _481  and  _482
REMARK  206  A    between atoms: _481  and  _484
REMARK  207  A    between atoms: _484  and  _485
REMARK  208  A    between atoms: _485  and  _486
REMARK  209  A    between atoms: _486  and  _487
REMARK  210  A    between atoms: _487  and  _488
REMARK  211  A    between atoms: _492  and  _494
REMARK  212  A    between atoms: _494  and  _495
REMARK  213  A    between atoms: _497  and  _499
REMARK  214  A    between atoms: _499  and  _500
REMARK  215  A    between atoms: _499  and  _502
REMARK  216  A    between atoms: _502  and  _503
REMARK  217  A    between atoms: _508  and  _509
REMARK  218  A    between atoms: _511  and  _513
REMARK  219  A    between atoms: _513  and  _514
REMARK  220  A    between atoms: _516  and  _518
REMARK  221  A    between atoms: _518  and  _519
REMARK  222  A    between atoms: _518  and  _521
REMARK  223  A    between atoms: _521  and  _522
REMARK                            x       y       z     vdW  Elec       q    Type
REMARK                         _______ _______ _______ _____ _____    ______ ____
ROOT
ATOM      1  O   HOH     1      53.126  56.638   7.118  0.00  0.00    +0.000 OA
ENDROOT
TORSDOF 0
REMARK  Name = ../refined-set-2016/3s2v/3s2v_pocket.pdb
REMARK  223 active torsions:
REMARK  status: ('A' for Active; 'I' for Inactive)
REMARK    1  A    between atoms: _1  and  _3
REMARK    2  A    between atoms: _3  and  _4
REMARK    3  A    between atoms: _3  and  _6
REMARK    4  A    between atoms: _6  and  _7
REMARK    5  A    between atoms: _10  and  _12
REMARK    6  A    between atoms: _12  and  _13
REMARK    7  A    between atoms: _12  and  _15
REMARK    8  A    between atoms: _15  and  _16
REMARK    9  A    between atoms: _19  and  _21
REMARK   10  A    between atoms: _21  and  _22
REMARK   11  A    between atoms: _21  and  _24
REMARK   12  A    between atoms: _24  and  _25
REMARK   13  A    between atoms: _25  and  _26
REMARK   14  A    between atoms: _29  and  _31
REMARK   15  A    between atoms: _31  and  _32
REMARK   16  A    between atoms: _31  and  _34
REMARK   17  A    between atoms: _34  and  _35
REMARK   18  A    between atoms: _35  and  _36
REMARK   19  A    between atoms: _40  and  _41
REMARK   20  A    between atoms: _46  and  _48
REMARK   21  A    between atoms: _48  and  _49
REMARK   22  A    between atoms: _48  and  _51
REMARK   23  A    between atoms: _51  and  _52
REMARK   24  A    between atoms: _57  and  _58
REMARK   25  A    between atoms: _60  and  _62
REMARK   26  A    between atoms: _62  and  _63
REMARK   27  A    between atoms: _62  and  _65
REMARK   28  A    between atoms: _68  and  _70
REMARK   29  A    between atoms: _70  and  _71
REMARK   30  A    between atoms: _70  and  _73
REMARK   31  A    between atoms: _73  and  _74
REMARK   32  A    between atoms: _74  and  _75
REMARK   33  A    between atoms: _75  and  _76
REMARK   34  A    between atoms: _76  and  _77
REMARK   35  A    between atoms: _81  and  _83
REMARK   36  A    between atoms: _83  and  _84
REMARK   37  A    between atoms: _83  and  _86
REMARK   38  A    between atoms: _86  and  _87
REMARK   39  A    between atoms: _92  and  _93
REMARK   40  A    between atoms: _95  and  _97
REMARK   41  A    between atoms: _97  and  _98
REMARK   42  A    between atoms: _100  and  _102
REMARK   43  A    between atoms: _102  and  _103
REMARK   44  A    between atoms: _106  and  _108
REMARK   45  A    between atoms: _108  and  _109
REMARK   46  A    between atoms: _108  and  _111
REMARK   47  A    between atoms: _111  and  _112
REMARK   48  A    between atoms: _112  and  _113
REMARK   49  A    between atoms: _115  and  _117
REMARK   50  A    between atoms: _117  and  _118
REMARK   51  A    between atoms: _117  and  _120
REMARK   52  A    between atoms: _123  and  _125
REMARK   53  A    between atoms: _125  and  _126
REMARK   54  A    between atoms: _130  and  _131
REMARK   55  A    between atoms: _136  and  _138
REMARK   56  A    between atoms: _138  and  _139
REMARK   57  A    between atoms: _138  and  _141
REMARK   58  A    between atoms: _141  and  _142
REMARK   59  A    between atoms: _145  and  _147
REMARK   60  A    between atoms: _147  and  _148
REMARK   61  A    between atoms: _147  and  _150
REMARK   62  A    between atoms: _150  and  _151
REMARK   63  A    between atoms: _154  and  _156
REMARK   64  A    between atoms: _156  and  _157
REMARK   65  A    between atoms: _156  and  _159
REMARK   66  A    between atoms: _159  and  _160
REMARK   67  A    between atoms: _163  and  _165
REMARK   68  A    between atoms: _165  and  _166
REMARK   69  A    between atoms: _165  and  _168
REMARK   70  A    between atoms: _168  and  _169
REMARK   71  A    between atoms: _172  and  _174
REMARK   72  A    between atoms: _174  and  _175
REMARK   73  A    between atoms: _174  and  _177
REMARK   74  A    between atoms: _177  and  _178
REMARK   75  A    between atoms: _178  and  _179
REMARK   76  A    between atoms: _179  and  _180
REMARK   77  A    between atoms: _189  and  _191
REMARK   78  A    between atoms: _191  and  _192
REMARK   79  A    between atoms: _191  and  _194
REMARK   80  A    between atoms: _194  and  _195
REMARK   81  A    between atoms: _201  and  _203
REMARK   82  A    between atoms: _203  and  _204
REMARK   83  A    between atoms: _203  and  _206
REMARK   84  A    between atoms: _206  and  _207
REMARK   85  A    between atoms: _207  and  _208
REMARK   86  A    between atoms: _210  and  _212
REMARK   87  A    between atoms: _212  and  _213
REMARK   88  A    between atoms: _212  and  _215
REMARK   89  A    between atoms: _215  and  _216
REMARK   90  A    between atoms: _219  and  _221
REMARK   91  A    between atoms: _221  and  _222
REMARK   92  A    between atoms: _224  and  _226
REMARK   93  A    between atoms: _226  and  _227
REMARK   94  A    between atoms: _226  and  _229
REMARK   95  A    between atoms: _229  and  _230
REMARK   96  A    between atoms: _233  and  _235
REMARK   97  A    between atoms: _235  and  _236
REMARK   98  A    between atoms: _235  and  _238
REMARK   99  A    between atoms: _238  and  _239
REMARK  100  A    between atoms: _241  and  _243
REMARK  101  A    between atoms: _243  and  _244
REMARK  102  A    between atoms: _246  and  _248
REMARK  103  A    between atoms: _248  and  _249
REMARK  104  A    between atoms: _252  and  _254
REMARK  105  A    between atoms: _254  and  _255
REMARK  106  A    between atoms: _254  and  _257
REMARK  107  A    between atoms: _260  and  _262
REMARK  108  A    between atoms: _262  and  _263
REMARK  109  A    between atoms: _262  and  _265
REMARK  110  A    between atoms: _265  and  _266
REMARK  111  A    between atoms: _266  and  _267
REMARK  112  A    between atoms: _267  and  _268
REMARK  113  A    between atoms: _277  and  _279
REMARK  114  A    between atoms: _279  and  _280
REMARK  115  A    between atoms: _279  and  _282
REMARK  116  A    between atoms: _282  and  _283
REMARK  117  A    between atoms: _286  and  _288
REMARK  118  A    between atoms: _288  and  _289
REMARK  119  A    between atoms: _291  and  _293
REMARK  120  A    between atoms: _293  and  _294
REMARK  121  A    between atoms: _293  and  _296
REMARK  122  A    between atoms: _296  and  _297
REMARK  123  A    between atoms: _299  and  _301
REMARK  124  A    between atoms: _301  and  _302
REMARK  125  A    between atoms: _301  and  _304
REMARK  126  A    between atoms: _304  and  _305
REMARK  127  A    between atoms: _308  and  _310
REMARK  128  A    between atoms: _310  and  _311
REMARK  129  A    between atoms: _310  and  _313
REMARK  130  A    between atoms: _313  and  _314
REMARK  131  A    between atoms: _314  and  _315
REMARK  132  A    between atoms: _317  and  _319
REMARK  133  A    between atoms: _319  and  _320
REMARK  134  A    between atoms: _319  and  _322
REMARK  135  A    between atoms: _322  and  _323
REMARK  136  A    between atoms: _326  and  _328
REMARK  137  A    between atoms: _328  and  _329
REMARK  138  A    between atoms: _328  and  _331
REMARK  139  A    between atoms: _331  and  _332
REMARK  140  A    between atoms: _338  and  _340
REMARK  141  A    between atoms: _340  and  _341
REMARK  142  A    between atoms: _340  and  _343
REMARK  143  A    between atoms: _343  and  _344
REMARK  144  A    between atoms: _350  and  _352
REMARK  145  A    between atoms: _352  and  _353
REMARK  146  A    between atoms: _352  and  _355
REMARK  147  A    between atoms: _358  and  _360
REMARK  148  A    between atoms: _360  and  _361
REMARK  149  A    between atoms: _360  and  _363
REMARK  150  A    between atoms: _363  and  _364
REMARK  151  A    between atoms: _364  and  _365
REMARK  152  A    between atoms: _365  and  _366
REMARK  153  A    between atoms: _366  and  _367
REMARK  154  A    between atoms: _371  and  _373
REMARK  155  A    between atoms: _373  and  _374
REMARK  156  A    between atoms: _373  and  _376
REMARK  157  A    between atoms: _376  and  _377
REMARK  158  A    between atoms: _382  and  _384
REMARK  159  A    between atoms: _384  and  _385
REMARK  160  A    between atoms: _384  and  _387
REMARK  161  A    between atoms: _387  and  _388
REMARK  162  A    between atoms: _390  and  _392
REMARK  163  A    between atoms: _392  and  _393
REMARK  164  A    between atoms: _392  and  _395
REMARK  165  A    between atoms: _395  and  _396
REMARK  166  A    between atoms: _399  and  _401
REMARK  167  A    between atoms: _401  and  _402
REMARK  168  A    between atoms: _401  and  _404
REMARK  169  A    between atoms: _404  and  _405
REMARK  170  A    between atoms: _408  and  _410
REMARK  171  A    between atoms: _410  and  _411
REMARK  172  A    between atoms: _410  and  _413
REMARK  173  A    between atoms: _413  and  _414
REMARK  174  A    between atoms: _417  and  _419
REMARK  175  A    between atoms: _419  and  _420
REMARK  176  A    between atoms: _419  and  _422
REMARK  177  A    between atoms: _422  and  _423
REMARK  178  A    between atoms: _423  and  _424
REMARK  179  A    between atoms: _426  and  _428
REMARK  180  A    between atoms: _428  and  _429
REMARK  181  A    between atoms: _428  and  _431
REMARK  182  A    between atoms: _431  and  _432
REMARK  183  A    between atoms: _432  and  _433
REMARK  184  A    between atoms: _436  and  _438
REMARK  185  A    between atoms: _438  and  _439
REMARK  186  A    between atoms: _438  and  _441
REMARK  187  A    between atoms: _441  and  _442
REMARK  188  A    between atoms: _444  and  _446
REMARK  189  A    between atoms: _446  and  _447
REMARK  190  A    between atoms: _446  and  _449
REMARK  191  A    between atoms: _449  and  _450
REMARK  192  A    between atoms: _453  and  _455
REMARK  193  A    between atoms: _455  and  _456
REMARK  194  A    between atoms: _455  and  _458
REMARK  195  A    between atoms: _458  and  _459
REMARK  196  A    between atoms: _461  and  _463
REMARK  197  A    between atoms: _463  and  _464
REMARK  198  A    between atoms: _463  and  _466
REMARK  199  A    between atoms: _466  and  _467
REMARK  200  A    between atoms: _470  and  _472
REMARK  201  A    between atoms: _472  and  _473
REMARK  202  A    between atoms: _472  and  _475
REMARK  203  A    between atoms: _475  and  _476
REMARK  204  A    between atoms: _479  and  _481
REMARK  205  A    between atoms: _481  and  _482
REMARK  206  A    between atoms: _481  and  _484
REMARK  207  A    between atoms: _484  and  _485
REMARK  208  A    between atoms: _485  and  _486
REMARK  209  A    between atoms: _486  and  _487
REMARK  210  A    between atoms: _487  and  _488
REMARK  211  A    between atoms: _492  and  _494
REMARK  212  A    between atoms: _494  and  _495
REMARK  213  A    between atoms: _497  and  _499
REMARK  214  A    between atoms: _499  and  _500
REMARK  215  A    between atoms: _499  and  _502
REMARK  216  A    between atoms: _502  and  _503
REMARK  217  A    between atoms: _508  and  _509
REMARK  218  A    between atoms: _511  and  _513
REMARK  219  A    between atoms: _513  and  _514
REMARK  220  A    between atoms: _516  and  _518
REMARK  221  A    between atoms: _518  and  _519
REMARK  222  A    between atoms: _518  and  _521
REMARK  223  A    between atoms: _521  and  _522
REMARK                            x       y       z     vdW  Elec       q    Type
REMARK                         _______ _______ _______ _____ _____    ______ ____
ROOT
ATOM      1  O   HOH     1      47.905  59.367   7.150  0.00  0.00    +0.000 OA
ENDROOT
TORSDOF 0
REMARK  Name = ../refined-set-2016/3s2v/3s2v_pocket.pdb
REMARK  223 active torsions:
REMARK  status: ('A' for Active; 'I' for Inactive)
REMARK    1  A    between atoms: _1  and  _3
REMARK    2  A    between atoms: _3  and  _4
REMARK    3  A    between atoms: _3  and  _6
REMARK    4  A    between atoms: _6  and  _7
REMARK    5  A    between atoms: _10  and  _12
REMARK    6  A    between atoms: _12  and  _13
REMARK    7  A    between atoms: _12  and  _15
REMARK    8  A    between atoms: _15  and  _16
REMARK    9  A    between atoms: _19  and  _21
REMARK   10  A    between atoms: _21  and  _22
REMARK   11  A    between atoms: _21  and  _24
REMARK   12  A    between atoms: _24  and  _25
REMARK   13  A    between atoms: _25  and  _26
REMARK   14  A    between atoms: _29  and  _31
REMARK   15  A    between atoms: _31  and  _32
REMARK   16  A    between atoms: _31  and  _34
REMARK   17  A    between atoms: _34  and  _35
REMARK   18  A    between atoms: _35  and  _36
REMARK   19  A    between atoms: _40  and  _41
REMARK   20  A    between atoms: _46  and  _48
REMARK   21  A    between atoms: _48  and  _49
REMARK   22  A    between atoms: _48  and  _51
REMARK   23  A    between atoms: _51  and  _52
REMARK   24  A    between atoms: _57  and  _58
REMARK   25  A    between atoms: _60  and  _62
REMARK   26  A    between atoms: _62  and  _63
REMARK   27  A    between atoms: _62  and  _65
REMARK   28  A    between atoms: _68  and  _70
REMARK   29  A    between atoms: _70  and  _71
REMARK   30  A    between atoms: _70  and  _73
REMARK   31  A    between atoms: _73  and  _74
REMARK   32  A    between atoms: _74  and  _75
REMARK   33  A    between atoms: _75  and  _76
REMARK   34  A    between atoms: _76  and  _77
REMARK   35  A    between atoms: _81  and  _83
REMARK   36  A    between atoms: _83  and  _84
REMARK   37  A    between atoms: _83  and  _86
REMARK   38  A    between atoms: _86  and  _87
REMARK   39  A    between atoms: _92  and  _93
REMARK   40  A    between atoms: _95  and  _97
REMARK   41  A    between atoms: _97  and  _98
REMARK   42  A    between atoms: _100  and  _102
REMARK   43  A    between atoms: _102  and  _103
REMARK   44  A    between atoms: _106  and  _108
REMARK   45  A    between atoms: _108  and  _109
REMARK   46  A    between atoms: _108  and  _111
REMARK   47  A    between atoms: _111  and  _112
REMARK   48  A    between atoms: _112  and  _113
REMARK   49  A    between atoms: _115  and  _117
REMARK   50  A    between atoms: _117  and  _118
REMARK   51  A    between atoms: _117  and  _120
REMARK   52  A    between atoms: _123  and  _125
REMARK   53  A    between atoms: _125  and  _126
REMARK   54  A    between atoms: _130  and  _131
REMARK   55  A    between atoms: _136  and  _138
REMARK   56  A    between atoms: _138  and  _139
REMARK   57  A    between atoms: _138  and  _141
REMARK   58  A    between atoms: _141  and  _142
REMARK   59  A    between atoms: _145  and  _147
REMARK   60  A    between atoms: _147  and  _148
REMARK   61  A    between atoms: _147  and  _150
REMARK   62  A    between atoms: _150  and  _151
REMARK   63  A    between atoms: _154  and  _156
REMARK   64  A    between atoms: _156  and  _157
REMARK   65  A    between atoms: _156  and  _159
REMARK   66  A    between atoms: _159  and  _160
REMARK   67  A    between atoms: _163  and  _165
REMARK   68  A    between atoms: _165  and  _166
REMARK   69  A    between atoms: _165  and  _168
REMARK   70  A    between atoms: _168  and  _169
REMARK   71  A    between atoms: _172  and  _174
REMARK   72  A    between atoms: _174  and  _175
REMARK   73  A    between atoms: _174  and  _177
REMARK   74  A    between atoms: _177  and  _178
REMARK   75  A    between atoms: _178  and  _179
REMARK   76  A    between atoms: _179  and  _180
REMARK   77  A    between atoms: _189  and  _191
REMARK   78  A    between atoms: _191  and  _192
REMARK   79  A    between atoms: _191  and  _194
REMARK   80  A    between atoms: _194  and  _195
REMARK   81  A    between atoms: _201  and  _203
REMARK   82  A    between atoms: _203  and  _204
REMARK   83  A    between atoms: _203  and  _206
REMARK   84  A    between atoms: _206  and  _207
REMARK   85  A    between atoms: _207  and  _208
REMARK   86  A    between atoms: _210  and  _212
REMARK   87  A    between atoms: _212  and  _213
REMARK   88  A    between atoms: _212  and  _215
REMARK   89  A    between atoms: _215  and  _216
REMARK   90  A    between atoms: _219  and  _221
REMARK   91  A    between atoms: _221  and  _222
REMARK   92  A    between atoms: _224  and  _226
REMARK   93  A    between atoms: _226  and  _227
REMARK   94  A    between atoms: _226  and  _229
REMARK   95  A    between atoms: _229  and  _230
REMARK   96  A    between atoms: _233  and  _235
REMARK   97  A    between atoms: _235  and  _236
REMARK   98  A    between atoms: _235  and  _238
REMARK   99  A    between atoms: _238  and  _239
REMARK  100  A    between atoms: _241  and  _243
REMARK  101  A    between atoms: _243  and  _244
REMARK  102  A    between atoms: _246  and  _248
REMARK  103  A    between atoms: _248  and  _249
REMARK  104  A    between atoms: _252  and  _254
REMARK  105  A    between atoms: _254  and  _255
REMARK  106  A    between atoms: _254  and  _257
REMARK  107  A    between atoms: _260  and  _262
REMARK  108  A    between atoms: _262  and  _263
REMARK  109  A    between atoms: _262  and  _265
REMARK  110  A    between atoms: _265  and  _266
REMARK  111  A    between atoms: _266  and  _267
REMARK  112  A    between atoms: _267  and  _268
REMARK  113  A    between atoms: _277  and  _279
REMARK  114  A    between atoms: _279  and  _280
REMARK  115  A    between atoms: _279  and  _282
REMARK  116  A    between atoms: _282  and  _283
REMARK  117  A    between atoms: _286  and  _288
REMARK  118  A    between atoms: _288  and  _289
REMARK  119  A    between atoms: _291  and  _293
REMARK  120  A    between atoms: _293  and  _294
REMARK  121  A    between atoms: _293  and  _296
REMARK  122  A    between atoms: _296  and  _297
REMARK  123  A    between atoms: _299  and  _301
REMARK  124  A    between atoms: _301  and  _302
REMARK  125  A    between atoms: _301  and  _304
REMARK  126  A    between atoms: _304  and  _305
REMARK  127  A    between atoms: _308  and  _310
REMARK  128  A    between atoms: _310  and  _311
REMARK  129  A    between atoms: _310  and  _313
REMARK  130  A    between atoms: _313  and  _314
REMARK  131  A    between atoms: _314  and  _315
REMARK  132  A    between atoms: _317  and  _319
REMARK  133  A    between atoms: _319  and  _320
REMARK  134  A    between atoms: _319  and  _322
REMARK  135  A    between atoms: _322  and  _323
REMARK  136  A    between atoms: _326  and  _328
REMARK  137  A    between atoms: _328  and  _329
REMARK  138  A    between atoms: _328  and  _331
REMARK  139  A    between atoms: _331  and  _332
REMARK  140  A    between atoms: _338  and  _340
REMARK  141  A    between atoms: _340  and  _341
REMARK  142  A    between atoms: _340  and  _343
REMARK  143  A    between atoms: _343  and  _344
REMARK  144  A    between atoms: _350  and  _352
REMARK  145  A    between atoms: _352  and  _353
REMARK  146  A    between atoms: _352  and  _355
REMARK  147  A    between atoms: _358  and  _360
REMARK  148  A    between atoms: _360  and  _361
REMARK  149  A    between atoms: _360  and  _363
REMARK  150  A    between atoms: _363  and  _364
REMARK  151  A    between atoms: _364  and  _365
REMARK  152  A    between atoms: _365  and  _366
REMARK  153  A    between atoms: _366  and  _367
REMARK  154  A    between atoms: _371  and  _373
REMARK  155  A    between atoms: _373  and  _374
REMARK  156  A    between atoms: _373  and  _376
REMARK  157  A    between atoms: _376  and  _377
REMARK  158  A    between atoms: _382  and  _384
REMARK  159  A    between atoms: _384  and  _385
REMARK  160  A    between atoms: _384  and  _387
REMARK  161  A    between atoms: _387  and  _388
REMARK  162  A    between atoms: _390  and  _392
REMARK  163  A    between atoms: _392  and  _393
REMARK  164  A    between atoms: _392  and  _395
REMARK  165  A    between atoms: _395  and  _396
REMARK  166  A    between atoms: _399  and  _401
REMARK  167  A    between atoms: _401  and  _402
REMARK  168  A    between atoms: _401  and  _404
REMARK  169  A    between atoms: _404  and  _405
REMARK  170  A    between atoms: _408  and  _410
REMARK  171  A    between atoms: _410  and  _411
REMARK  172  A    between atoms: _410  and  _413
REMARK  173  A    between atoms: _413  and  _414
REMARK  174  A    between atoms: _417  and  _419
REMARK  175  A    between atoms: _419  and  _420
REMARK  176  A    between atoms: _419  and  _422
REMARK  177  A    between atoms: _422  and  _423
REMARK  178  A    between atoms: _423  and  _424
REMARK  179  A    between atoms: _426  and  _428
REMARK  180  A    between atoms: _428  and  _429
REMARK  181  A    between atoms: _428  and  _431
REMARK  182  A    between atoms: _431  and  _432
REMARK  183  A    between atoms: _432  and  _433
REMARK  184  A    between atoms: _436  and  _438
REMARK  185  A    between atoms: _438  and  _439
REMARK  186  A    between atoms: _438  and  _441
REMARK  187  A    between atoms: _441  and  _442
REMARK  188  A    between atoms: _444  and  _446
REMARK  189  A    between atoms: _446  and  _447
REMARK  190  A    between atoms: _446  and  _449
REMARK  191  A    between atoms: _449  and  _450
REMARK  192  A    between atoms: _453  and  _455
REMARK  193  A    between atoms: _455  and  _456
REMARK  194  A    between atoms: _455  and  _458
REMARK  195  A    between atoms: _458  and  _459
REMARK  196  A    between atoms: _461  and  _463
REMARK  197  A    between atoms: _463  and  _464
REMARK  198  A    between atoms: _463  and  _466
REMARK  199  A    between atoms: _466  and  _467
REMARK  200  A    between atoms: _470  and  _472
REMARK  201  A    between atoms: _472  and  _473
REMARK  202  A    between atoms: _472  and  _475
REMARK  203  A    between atoms: _475  and  _476
REMARK  204  A    between atoms: _479  and  _481
REMARK  205  A    between atoms: _481  and  _482
REMARK  206  A    between atoms: _481  and  _484
REMARK  207  A    between atoms: _484  and  _485
REMARK  208  A    between atoms: _485  and  _486
REMARK  209  A    between atoms: _486  and  _487
REMARK  210  A    between atoms: _487  and  _488
REMARK  211  A    between atoms: _492  and  _494
REMARK  212  A    between atoms: _494  and  _495
REMARK  213  A    between atoms: _497  and  _499
REMARK  214  A    between atoms: _499  and  _500
REMARK  215  A    between atoms: _499  and  _502
REMARK  216  A    between atoms: _502  and  _503
REMARK  217  A    between atoms: _508  and  _509
REMARK  218  A    between atoms: _511  and  _513
REMARK  219  A    between atoms: _513  and  _514
REMARK  220  A    between atoms: _516  and  _518
REMARK  221  A    between atoms: _518  and  _519
REMARK  222  A    between atoms: _518  and  _521
REMARK  223  A    between atoms: _521  and  _522
REMARK                            x       y       z     vdW  Elec       q    Type
REMARK                         _______ _______ _______ _____ _____    ______ ____
ROOT
ATOM      1  O   HOH     1      45.598  54.647  -3.728  0.00  0.00    +0.000 OA
ENDROOT
TORSDOF 0
REMARK  Name = ../refined-set-2016/3s2v/3s2v_pocket.pdb
REMARK  223 active torsions:
REMARK  status: ('A' for Active; 'I' for Inactive)
REMARK    1  A    between atoms: _1  and  _3
REMARK    2  A    between atoms: _3  and  _4
REMARK    3  A    between atoms: _3  and  _6
REMARK    4  A    between atoms: _6  and  _7
REMARK    5  A    between atoms: _10  and  _12
REMARK    6  A    between atoms: _12  and  _13
REMARK    7  A    between atoms: _12  and  _15
REMARK    8  A    between atoms: _15  and  _16
REMARK    9  A    between atoms: _19  and  _21
REMARK   10  A    between atoms: _21  and  _22
REMARK   11  A    between atoms: _21  and  _24
REMARK   12  A    between atoms: _24  and  _25
REMARK   13  A    between atoms: _25  and  _26
REMARK   14  A    between atoms: _29  and  _31
REMARK   15  A    between atoms: _31  and  _32
REMARK   16  A    between atoms: _31  and  _34
REMARK   17  A    between atoms: _34  and  _35
REMARK   18  A    between atoms: _35  and  _36
REMARK   19  A    between atoms: _40  and  _41
REMARK   20  A    between atoms: _46  and  _48
REMARK   21  A    between atoms: _48  and  _49
REMARK   22  A    between atoms: _48  and  _51
REMARK   23  A    between atoms: _51  and  _52
REMARK   24  A    between atoms: _57  and  _58
REMARK   25  A    between atoms: _60  and  _62
REMARK   26  A    between atoms: _62  and  _63
REMARK   27  A    between atoms: _62  and  _65
REMARK   28  A    between atoms: _68  and  _70
REMARK   29  A    between atoms: _70  and  _71
REMARK   30  A    between atoms: _70  and  _73
REMARK   31  A    between atoms: _73  and  _74
REMARK   32  A    between atoms: _74  and  _75
REMARK   33  A    between atoms: _75  and  _76
REMARK   34  A    between atoms: _76  and  _77
REMARK   35  A    between atoms: _81  and  _83
REMARK   36  A    between atoms: _83  and  _84
REMARK   37  A    between atoms: _83  and  _86
REMARK   38  A    between atoms: _86  and  _87
REMARK   39  A    between atoms: _92  and  _93
REMARK   40  A    between atoms: _95  and  _97
REMARK   41  A    between atoms: _97  and  _98
REMARK   42  A    between atoms: _100  and  _102
REMARK   43  A    between atoms: _102  and  _103
REMARK   44  A    between atoms: _106  and  _108
REMARK   45  A    between atoms: _108  and  _109
REMARK   46  A    between atoms: _108  and  _111
REMARK   47  A    between atoms: _111  and  _112
REMARK   48  A    between atoms: _112  and  _113
REMARK   49  A    between atoms: _115  and  _117
REMARK   50  A    between atoms: _117  and  _118
REMARK   51  A    between atoms: _117  and  _120
REMARK   52  A    between atoms: _123  and  _125
REMARK   53  A    between atoms: _125  and  _126
REMARK   54  A    between atoms: _130  and  _131
REMARK   55  A    between atoms: _136  and  _138
REMARK   56  A    between atoms: _138  and  _139
REMARK   57  A    between atoms: _138  and  _141
REMARK   58  A    between atoms: _141  and  _142
REMARK   59  A    between atoms: _145  and  _147
REMARK   60  A    between atoms: _147  and  _148
REMARK   61  A    between atoms: _147  and  _150
REMARK   62  A    between atoms: _150  and  _151
REMARK   63  A    between atoms: _154  and  _156
REMARK   64  A    between atoms: _156  and  _157
REMARK   65  A    between atoms: _156  and  _159
REMARK   66  A    between atoms: _159  and  _160
REMARK   67  A    between atoms: _163  and  _165
REMARK   68  A    between atoms: _165  and  _166
REMARK   69  A    between atoms: _165  and  _168
REMARK   70  A    between atoms: _168  and  _169
REMARK   71  A    between atoms: _172  and  _174
REMARK   72  A    between atoms: _174  and  _175
REMARK   73  A    between atoms: _174  and  _177
REMARK   74  A    between atoms: _177  and  _178
REMARK   75  A    between atoms: _178  and  _179
REMARK   76  A    between atoms: _179  and  _180
REMARK   77  A    between atoms: _189  and  _191
REMARK   78  A    between atoms: _191  and  _192
REMARK   79  A    between atoms: _191  and  _194
REMARK   80  A    between atoms: _194  and  _195
REMARK   81  A    between atoms: _201  and  _203
REMARK   82  A    between atoms: _203  and  _204
REMARK   83  A    between atoms: _203  and  _206
REMARK   84  A    between atoms: _206  and  _207
REMARK   85  A    between atoms: _207  and  _208
REMARK   86  A    between atoms: _210  and  _212
REMARK   87  A    between atoms: _212  and  _213
REMARK   88  A    between atoms: _212  and  _215
REMARK   89  A    between atoms: _215  and  _216
REMARK   90  A    between atoms: _219  and  _221
REMARK   91  A    between atoms: _221  and  _222
REMARK   92  A    between atoms: _224  and  _226
REMARK   93  A    between atoms: _226  and  _227
REMARK   94  A    between atoms: _226  and  _229
REMARK   95  A    between atoms: _229  and  _230
REMARK   96  A    between atoms: _233  and  _235
REMARK   97  A    between atoms: _235  and  _236
REMARK   98  A    between atoms: _235  and  _238
REMARK   99  A    between atoms: _238  and  _239
REMARK  100  A    between atoms: _241  and  _243
REMARK  101  A    between atoms: _243  and  _244
REMARK  102  A    between atoms: _246  and  _248
REMARK  103  A    between atoms: _248  and  _249
REMARK  104  A    between atoms: _252  and  _254
REMARK  105  A    between atoms: _254  and  _255
REMARK  106  A    between atoms: _254  and  _257
REMARK  107  A    between atoms: _260  and  _262
REMARK  108  A    between atoms: _262  and  _263
REMARK  109  A    between atoms: _262  and  _265
REMARK  110  A    between atoms: _265  and  _266
REMARK  111  A    between atoms: _266  and  _267
REMARK  112  A    between atoms: _267  and  _268
REMARK  113  A    between atoms: _277  and  _279
REMARK  114  A    between atoms: _279  and  _280
REMARK  115  A    between atoms: _279  and  _282
REMARK  116  A    between atoms: _282  and  _283
REMARK  117  A    between atoms: _286  and  _288
REMARK  118  A    between atoms: _288  and  _289
REMARK  119  A    between atoms: _291  and  _293
REMARK  120  A    between atoms: _293  and  _294
REMARK  121  A    between atoms: _293  and  _296
REMARK  122  A    between atoms: _296  and  _297
REMARK  123  A    between atoms: _299  and  _301
REMARK  124  A    between atoms: _301  and  _302
REMARK  125  A    between atoms: _301  and  _304
REMARK  126  A    between atoms: _304  and  _305
REMARK  127  A    between atoms: _308  and  _310
REMARK  128  A    between atoms: _310  and  _311
REMARK  129  A    between atoms: _310  and  _313
REMARK  130  A    between atoms: _313  and  _314
REMARK  131  A    between atoms: _314  and  _315
REMARK  132  A    between atoms: _317  and  _319
REMARK  133  A    between atoms: _319  and  _320
REMARK  134  A    between atoms: _319  and  _322
REMARK  135  A    between atoms: _322  and  _323
REMARK  136  A    between atoms: _326  and  _328
REMARK  137  A    between atoms: _328  and  _329
REMARK  138  A    between atoms: _328  and  _331
REMARK  139  A    between atoms: _331  and  _332
REMARK  140  A    between atoms: _338  and  _340
REMARK  141  A    between atoms: _340  and  _341
REMARK  142  A    between atoms: _340  and  _343
REMARK  143  A    between atoms: _343  and  _344
REMARK  144  A    between atoms: _350  and  _352
REMARK  145  A    between atoms: _352  and  _353
REMARK  146  A    between atoms: _352  and  _355
REMARK  147  A    between atoms: _358  and  _360
REMARK  148  A    between atoms: _360  and  _361
REMARK  149  A    between atoms: _360  and  _363
REMARK  150  A    between atoms: _363  and  _364
REMARK  151  A    between atoms: _364  and  _365
REMARK  152  A    between atoms: _365  and  _366
REMARK  153  A    between atoms: _366  and  _367
REMARK  154  A    between atoms: _371  and  _373
REMARK  155  A    between atoms: _373  and  _374
REMARK  156  A    between atoms: _373  and  _376
REMARK  157  A    between atoms: _376  and  _377
REMARK  158  A    between atoms: _382  and  _384
REMARK  159  A    between atoms: _384  and  _385
REMARK  160  A    between atoms: _384  and  _387
REMARK  161  A    between atoms: _387  and  _388
REMARK  162  A    between atoms: _390  and  _392
REMARK  163  A    between atoms: _392  and  _393
REMARK  164  A    between atoms: _392  and  _395
REMARK  165  A    between atoms: _395  and  _396
REMARK  166  A    between atoms: _399  and  _401
REMARK  167  A    between atoms: _401  and  _402
REMARK  168  A    between atoms: _401  and  _404
REMARK  169  A    between atoms: _404  and  _405
REMARK  170  A    between atoms: _408  and  _410
REMARK  171  A    between atoms: _410  and  _411
REMARK  172  A    between atoms: _410  and  _413
REMARK  173  A    between atoms: _413  and  _414
REMARK  174  A    between atoms: _417  and  _419
REMARK  175  A    between atoms: _419  and  _420
REMARK  176  A    between atoms: _419  and  _422
REMARK  177  A    between atoms: _422  and  _423
REMARK  178  A    between atoms: _423  and  _424
REMARK  179  A    between atoms: _426  and  _428
REMARK  180  A    between atoms: _428  and  _429
REMARK  181  A    between atoms: _428  and  _431
REMARK  182  A    between atoms: _431  and  _432
REMARK  183  A    between atoms: _432  and  _433
REMARK  184  A    between atoms: _436  and  _438
REMARK  185  A    between atoms: _438  and  _439
REMARK  186  A    between atoms: _438  and  _441
REMARK  187  A    between atoms: _441  and  _442
REMARK  188  A    between atoms: _444  and  _446
REMARK  189  A    between atoms: _446  and  _447
REMARK  190  A    between atoms: _446  and  _449
REMARK  191  A    between atoms: _449  and  _450
REMARK  192  A    between atoms: _453  and  _455
REMARK  193  A    between atoms: _455  and  _456
REMARK  194  A    between atoms: _455  and  _458
REMARK  195  A    between atoms: _458  and  _459
REMARK  196  A    between atoms: _461  and  _463
REMARK  197  A    between atoms: _463  and  _464
REMARK  198  A    between atoms: _463  and  _466
REMARK  199  A    between atoms: _466  and  _467
REMARK  200  A    between atoms: _470  and  _472
REMARK  201  A    between atoms: _472  and  _473
REMARK  202  A    between atoms: _472  and  _475
REMARK  203  A    between atoms: _475  and  _476
REMARK  204  A    between atoms: _479  and  _481
REMARK  205  A    between atoms: _481  and  _482
REMARK  206  A    between atoms: _481  and  _484
REMARK  207  A    between atoms: _484  and  _485
REMARK  208  A    between atoms: _485  and  _486
REMARK  209  A    between atoms: _486  and  _487
REMARK  210  A    between atoms: _487  and  _488
REMARK  211  A    between atoms: _492  and  _494
REMARK  212  A    between atoms: _494  and  _495
REMARK  213  A    between atoms: _497  and  _499
REMARK  214  A    between atoms: _499  and  _500
REMARK  215  A    between atoms: _499  and  _502
REMARK  216  A    between atoms: _502  and  _503
REMARK  217  A    between atoms: _508  and  _509
REMARK  218  A    between atoms: _511  and  _513
REMARK  219  A    between atoms: _513  and  _514
REMARK  220  A    between atoms: _516  and  _518
REMARK  221  A    between atoms: _518  and  _519
REMARK  222  A    between atoms: _518  and  _521
REMARK  223  A    between atoms: _521  and  _522
REMARK                            x       y       z     vdW  Elec       q    Type
REMARK                         _______ _______ _______ _____ _____    ______ ____
ROOT
ATOM      1  O   HOH     1      47.118  57.569  12.912  0.00  0.00    +0.000 OA
ENDROOT
TORSDOF 0
REMARK  Name = ../refined-set-2016/3s2v/3s2v_pocket.pdb
REMARK  223 active torsions:
REMARK  status: ('A' for Active; 'I' for Inactive)
REMARK    1  A    between atoms: _1  and  _3
REMARK    2  A    between atoms: _3  and  _4
REMARK    3  A    between atoms: _3  and  _6
REMARK    4  A    between atoms: _6  and  _7
REMARK    5  A    between atoms: _10  and  _12
REMARK    6  A    between atoms: _12  and  _13
REMARK    7  A    between atoms: _12  and  _15
REMARK    8  A    between atoms: _15  and  _16
REMARK    9  A    between atoms: _19  and  _21
REMARK   10  A    between atoms: _21  and  _22
REMARK   11  A    between atoms: _21  and  _24
REMARK   12  A    between atoms: _24  and  _25
REMARK   13  A    between atoms: _25  and  _26
REMARK   14  A    between atoms: _29  and  _31
REMARK   15  A    between atoms: _31  and  _32
REMARK   16  A    between atoms: _31  and  _34
REMARK   17  A    between atoms: _34  and  _35
REMARK   18  A    between atoms: _35  and  _36
REMARK   19  A    between atoms: _40  and  _41
REMARK   20  A    between atoms: _46  and  _48
REMARK   21  A    between atoms: _48  and  _49
REMARK   22  A    between atoms: _48  and  _51
REMARK   23  A    between atoms: _51  and  _52
REMARK   24  A    between atoms: _57  and  _58
REMARK   25  A    between atoms: _60  and  _62
REMARK   26  A    between atoms: _62  and  _63
REMARK   27  A    between atoms: _62  and  _65
REMARK   28  A    between atoms: _68  and  _70
REMARK   29  A    between atoms: _70  and  _71
REMARK   30  A    between atoms: _70  and  _73
REMARK   31  A    between atoms: _73  and  _74
REMARK   32  A    between atoms: _74  and  _75
REMARK   33  A    between atoms: _75  and  _76
REMARK   34  A    between atoms: _76  and  _77
REMARK   35  A    between atoms: _81  and  _83
REMARK   36  A    between atoms: _83  and  _84
REMARK   37  A    between atoms: _83  and  _86
REMARK   38  A    between atoms: _86  and  _87
REMARK   39  A    between atoms: _92  and  _93
REMARK   40  A    between atoms: _95  and  _97
REMARK   41  A    between atoms: _97  and  _98
REMARK   42  A    between atoms: _100  and  _102
REMARK   43  A    between atoms: _102  and  _103
REMARK   44  A    between atoms: _106  and  _108
REMARK   45  A    between atoms: _108  and  _109
REMARK   46  A    between atoms: _108  and  _111
REMARK   47  A    between atoms: _111  and  _112
REMARK   48  A    between atoms: _112  and  _113
REMARK   49  A    between atoms: _115  and  _117
REMARK   50  A    between atoms: _117  and  _118
REMARK   51  A    between atoms: _117  and  _120
REMARK   52  A    between atoms: _123  and  _125
REMARK   53  A    between atoms: _125  and  _126
REMARK   54  A    between atoms: _130  and  _131
REMARK   55  A    between atoms: _136  and  _138
REMARK   56  A    between atoms: _138  and  _139
REMARK   57  A    between atoms: _138  and  _141
REMARK   58  A    between atoms: _141  and  _142
REMARK   59  A    between atoms: _145  and  _147
REMARK   60  A    between atoms: _147  and  _148
REMARK   61  A    between atoms: _147  and  _150
REMARK   62  A    between atoms: _150  and  _151
REMARK   63  A    between atoms: _154  and  _156
REMARK   64  A    between atoms: _156  and  _157
REMARK   65  A    between atoms: _156  and  _159
REMARK   66  A    between atoms: _159  and  _160
REMARK   67  A    between atoms: _163  and  _165
REMARK   68  A    between atoms: _165  and  _166
REMARK   69  A    between atoms: _165  and  _168
REMARK   70  A    between atoms: _168  and  _169
REMARK   71  A    between atoms: _172  and  _174
REMARK   72  A    between atoms: _174  and  _175
REMARK   73  A    between atoms: _174  and  _177
REMARK   74  A    between atoms: _177  and  _178
REMARK   75  A    between atoms: _178  and  _179
REMARK   76  A    between atoms: _179  and  _180
REMARK   77  A    between atoms: _189  and  _191
REMARK   78  A    between atoms: _191  and  _192
REMARK   79  A    between atoms: _191  and  _194
REMARK   80  A    between atoms: _194  and  _195
REMARK   81  A    between atoms: _201  and  _203
REMARK   82  A    between atoms: _203  and  _204
REMARK   83  A    between atoms: _203  and  _206
REMARK   84  A    between atoms: _206  and  _207
REMARK   85  A    between atoms: _207  and  _208
REMARK   86  A    between atoms: _210  and  _212
REMARK   87  A    between atoms: _212  and  _213
REMARK   88  A    between atoms: _212  and  _215
REMARK   89  A    between atoms: _215  and  _216
REMARK   90  A    between atoms: _219  and  _221
REMARK   91  A    between atoms: _221  and  _222
REMARK   92  A    between atoms: _224  and  _226
REMARK   93  A    between atoms: _226  and  _227
REMARK   94  A    between atoms: _226  and  _229
REMARK   95  A    between atoms: _229  and  _230
REMARK   96  A    between atoms: _233  and  _235
REMARK   97  A    between atoms: _235  and  _236
REMARK   98  A    between atoms: _235  and  _238
REMARK   99  A    between atoms: _238  and  _239
REMARK  100  A    between atoms: _241  and  _243
REMARK  101  A    between atoms: _243  and  _244
REMARK  102  A    between atoms: _246  and  _248
REMARK  103  A    between atoms: _248  and  _249
REMARK  104  A    between atoms: _252  and  _254
REMARK  105  A    between atoms: _254  and  _255
REMARK  106  A    between atoms: _254  and  _257
REMARK  107  A    between atoms: _260  and  _262
REMARK  108  A    between atoms: _262  and  _263
REMARK  109  A    between atoms: _262  and  _265
REMARK  110  A    between atoms: _265  and  _266
REMARK  111  A    between atoms: _266  and  _267
REMARK  112  A    between atoms: _267  and  _268
REMARK  113  A    between atoms: _277  and  _279
REMARK  114  A    between atoms: _279  and  _280
REMARK  115  A    between atoms: _279  and  _282
REMARK  116  A    between atoms: _282  and  _283
REMARK  117  A    between atoms: _286  and  _288
REMARK  118  A    between atoms: _288  and  _289
REMARK  119  A    between atoms: _291  and  _293
REMARK  120  A    between atoms: _293  and  _294
REMARK  121  A    between atoms: _293  and  _296
REMARK  122  A    between atoms: _296  and  _297
REMARK  123  A    between atoms: _299  and  _301
REMARK  124  A    between atoms: _301  and  _302
REMARK  125  A    between atoms: _301  and  _304
REMARK  126  A    between atoms: _304  and  _305
REMARK  127  A    between atoms: _308  and  _310
REMARK  128  A    between atoms: _310  and  _311
REMARK  129  A    between atoms: _310  and  _313
REMARK  130  A    between atoms: _313  and  _314
REMARK  131  A    between atoms: _314  and  _315
REMARK  132  A    between atoms: _317  and  _319
REMARK  133  A    between atoms: _319  and  _320
REMARK  134  A    between atoms: _319  and  _322
REMARK  135  A    between atoms: _322  and  _323
REMARK  136  A    between atoms: _326  and  _328
REMARK  137  A    between atoms: _328  and  _329
REMARK  138  A    between atoms: _328  and  _331
REMARK  139  A    between atoms: _331  and  _332
REMARK  140  A    between atoms: _338  and  _340
REMARK  141  A    between atoms: _340  and  _341
REMARK  142  A    between atoms: _340  and  _343
REMARK  143  A    between atoms: _343  and  _344
REMARK  144  A    between atoms: _350  and  _352
REMARK  145  A    between atoms: _352  and  _353
REMARK  146  A    between atoms: _352  and  _355
REMARK  147  A    between atoms: _358  and  _360
REMARK  148  A    between atoms: _360  and  _361
REMARK  149  A    between atoms: _360  and  _363
REMARK  150  A    between atoms: _363  and  _364
REMARK  151  A    between atoms: _364  and  _365
REMARK  152  A    between atoms: _365  and  _366
REMARK  153  A    between atoms: _366  and  _367
REMARK  154  A    between atoms: _371  and  _373
REMARK  155  A    between atoms: _373  and  _374
REMARK  156  A    between atoms: _373  and  _376
REMARK  157  A    between atoms: _376  and  _377
REMARK  158  A    between atoms: _382  and  _384
REMARK  159  A    between atoms: _384  and  _385
REMARK  160  A    between atoms: _384  and  _387
REMARK  161  A    between atoms: _387  and  _388
REMARK  162  A    between atoms: _390  and  _392
REMARK  163  A    between atoms: _392  and  _393
REMARK  164  A    between atoms: _392  and  _395
REMARK  165  A    between atoms: _395  and  _396
REMARK  166  A    between atoms: _399  and  _401
REMARK  167  A    between atoms: _401  and  _402
REMARK  168  A    between atoms: _401  and  _404
REMARK  169  A    between atoms: _404  and  _405
REMARK  170  A    between atoms: _408  and  _410
REMARK  171  A    between atoms: _410  and  _411
REMARK  172  A    between atoms: _410  and  _413
REMARK  173  A    between atoms: _413  and  _414
REMARK  174  A    between atoms: _417  and  _419
REMARK  175  A    between atoms: _419  and  _420
REMARK  176  A    between atoms: _419  and  _422
REMARK  177  A    between atoms: _422  and  _423
REMARK  178  A    between atoms: _423  and  _424
REMARK  179  A    between atoms: _426  and  _428
REMARK  180  A    between atoms: _428  and  _429
REMARK  181  A    between atoms: _428  and  _431
REMARK  182  A    between atoms: _431  and  _432
REMARK  183  A    between atoms: _432  and  _433
REMARK  184  A    between atoms: _436  and  _438
REMARK  185  A    between atoms: _438  and  _439
REMARK  186  A    between atoms: _438  and  _441
REMARK  187  A    between atoms: _441  and  _442
REMARK  188  A    between atoms: _444  and  _446
REMARK  189  A    between atoms: _446  and  _447
REMARK  190  A    between atoms: _446  and  _449
REMARK  191  A    between atoms: _449  and  _450
REMARK  192  A    between atoms: _453  and  _455
REMARK  193  A    between atoms: _455  and  _456
REMARK  194  A    between atoms: _455  and  _458
REMARK  195  A    between atoms: _458  and  _459
REMARK  196  A    between atoms: _461  and  _463
REMARK  197  A    between atoms: _463  and  _464
REMARK  198  A    between atoms: _463  and  _466
REMARK  199  A    between atoms: _466  and  _467
REMARK  200  A    between atoms: _470  and  _472
REMARK  201  A    between atoms: _472  and  _473
REMARK  202  A    between atoms: _472  and  _475
REMARK  203  A    between atoms: _475  and  _476
REMARK  204  A    between atoms: _479  and  _481
REMARK  205  A    between atoms: _481  and  _482
REMARK  206  A    between atoms: _481  and  _484
REMARK  207  A    between atoms: _484  and  _485
REMARK  208  A    between atoms: _485  and  _486
REMARK  209  A    between atoms: _486  and  _487
REMARK  210  A    between atoms: _487  and  _488
REMARK  211  A    between atoms: _492  and  _494
REMARK  212  A    between atoms: _494  and  _495
REMARK  213  A    between atoms: _497  and  _499
REMARK  214  A    between atoms: _499  and  _500
REMARK  215  A    between atoms: _499  and  _502
REMARK  216  A    between atoms: _502  and  _503
REMARK  217  A    between atoms: _508  and  _509
REMARK  218  A    between atoms: _511  and  _513
REMARK  219  A    between atoms: _513  and  _514
REMARK  220  A    between atoms: _516  and  _518
REMARK  221  A    between atoms: _518  and  _519
REMARK  222  A    between atoms: _518  and  _521
REMARK  223  A    between atoms: _521  and  _522
REMARK                            x       y       z     vdW  Elec       q    Type
REMARK                         _______ _______ _______ _____ _____    ______ ____
ROOT
ATOM      1  O   HOH     1      44.094  62.221  14.100  0.00  0.00    +0.000 OA
ENDROOT
TORSDOF 0
REMARK  Name = ../refined-set-2016/3s2v/3s2v_pocket.pdb
REMARK  223 active torsions:
REMARK  status: ('A' for Active; 'I' for Inactive)
REMARK    1  A    between atoms: _1  and  _3
REMARK    2  A    between atoms: _3  and  _4
REMARK    3  A    between atoms: _3  and  _6
REMARK    4  A    between atoms: _6  and  _7
REMARK    5  A    between atoms: _10  and  _12
REMARK    6  A    between atoms: _12  and  _13
REMARK    7  A    between atoms: _12  and  _15
REMARK    8  A    between atoms: _15  and  _16
REMARK    9  A    between atoms: _19  and  _21
REMARK   10  A    between atoms: _21  and  _22
REMARK   11  A    between atoms: _21  and  _24
REMARK   12  A    between atoms: _24  and  _25
REMARK   13  A    between atoms: _25  and  _26
REMARK   14  A    between atoms: _29  and  _31
REMARK   15  A    between atoms: _31  and  _32
REMARK   16  A    between atoms: _31  and  _34
REMARK   17  A    between atoms: _34  and  _35
REMARK   18  A    between atoms: _35  and  _36
REMARK   19  A    between atoms: _40  and  _41
REMARK   20  A    between atoms: _46  and  _48
REMARK   21  A    between atoms: _48  and  _49
REMARK   22  A    between atoms: _48  and  _51
REMARK   23  A    between atoms: _51  and  _52
REMARK   24  A    between atoms: _57  and  _58
REMARK   25  A    between atoms: _60  and  _62
REMARK   26  A    between atoms: _62  and  _63
REMARK   27  A    between atoms: _62  and  _65
REMARK   28  A    between atoms: _68  and  _70
REMARK   29  A    between atoms: _70  and  _71
REMARK   30  A    between atoms: _70  and  _73
REMARK   31  A    between atoms: _73  and  _74
REMARK   32  A    between atoms: _74  and  _75
REMARK   33  A    between atoms: _75  and  _76
REMARK   34  A    between atoms: _76  and  _77
REMARK   35  A    between atoms: _81  and  _83
REMARK   36  A    between atoms: _83  and  _84
REMARK   37  A    between atoms: _83  and  _86
REMARK   38  A    between atoms: _86  and  _87
REMARK   39  A    between atoms: _92  and  _93
REMARK   40  A    between atoms: _95  and  _97
REMARK   41  A    between atoms: _97  and  _98
REMARK   42  A    between atoms: _100  and  _102
REMARK   43  A    between atoms: _102  and  _103
REMARK   44  A    between atoms: _106  and  _108
REMARK   45  A    between atoms: _108  and  _109
REMARK   46  A    between atoms: _108  and  _111
REMARK   47  A    between atoms: _111  and  _112
REMARK   48  A    between atoms: _112  and  _113
REMARK   49  A    between atoms: _115  and  _117
REMARK   50  A    between atoms: _117  and  _118
REMARK   51  A    between atoms: _117  and  _120
REMARK   52  A    between atoms: _123  and  _125
REMARK   53  A    between atoms: _125  and  _126
REMARK   54  A    between atoms: _130  and  _131
REMARK   55  A    between atoms: _136  and  _138
REMARK   56  A    between atoms: _138  and  _139
REMARK   57  A    between atoms: _138  and  _141
REMARK   58  A    between atoms: _141  and  _142
REMARK   59  A    between atoms: _145  and  _147
REMARK   60  A    between atoms: _147  and  _148
REMARK   61  A    between atoms: _147  and  _150
REMARK   62  A    between atoms: _150  and  _151
REMARK   63  A    between atoms: _154  and  _156
REMARK   64  A    between atoms: _156  and  _157
REMARK   65  A    between atoms: _156  and  _159
REMARK   66  A    between atoms: _159  and  _160
REMARK   67  A    between atoms: _163  and  _165
REMARK   68  A    between atoms: _165  and  _166
REMARK   69  A    between atoms: _165  and  _168
REMARK   70  A    between atoms: _168  and  _169
REMARK   71  A    between atoms: _172  and  _174
REMARK   72  A    between atoms: _174  and  _175
REMARK   73  A    between atoms: _174  and  _177
REMARK   74  A    between atoms: _177  and  _178
REMARK   75  A    between atoms: _178  and  _179
REMARK   76  A    between atoms: _179  and  _180
REMARK   77  A    between atoms: _189  and  _191
REMARK   78  A    between atoms: _191  and  _192
REMARK   79  A    between atoms: _191  and  _194
REMARK   80  A    between atoms: _194  and  _195
REMARK   81  A    between atoms: _201  and  _203
REMARK   82  A    between atoms: _203  and  _204
REMARK   83  A    between atoms: _203  and  _206
REMARK   84  A    between atoms: _206  and  _207
REMARK   85  A    between atoms: _207  and  _208
REMARK   86  A    between atoms: _210  and  _212
REMARK   87  A    between atoms: _212  and  _213
REMARK   88  A    between atoms: _212  and  _215
REMARK   89  A    between atoms: _215  and  _216
REMARK   90  A    between atoms: _219  and  _221
REMARK   91  A    between atoms: _221  and  _222
REMARK   92  A    between atoms: _224  and  _226
REMARK   93  A    between atoms: _226  and  _227
REMARK   94  A    between atoms: _226  and  _229
REMARK   95  A    between atoms: _229  and  _230
REMARK   96  A    between atoms: _233  and  _235
REMARK   97  A    between atoms: _235  and  _236
REMARK   98  A    between atoms: _235  and  _238
REMARK   99  A    between atoms: _238  and  _239
REMARK  100  A    between atoms: _241  and  _243
REMARK  101  A    between atoms: _243  and  _244
REMARK  102  A    between atoms: _246  and  _248
REMARK  103  A    between atoms: _248  and  _249
REMARK  104  A    between atoms: _252  and  _254
REMARK  105  A    between atoms: _254  and  _255
REMARK  106  A    between atoms: _254  and  _257
REMARK  107  A    between atoms: _260  and  _262
REMARK  108  A    between atoms: _262  and  _263
REMARK  109  A    between atoms: _262  and  _265
REMARK  110  A    between atoms: _265  and  _266
REMARK  111  A    between atoms: _266  and  _267
REMARK  112  A    between atoms: _267  and  _268
REMARK  113  A    between atoms: _277  and  _279
REMARK  114  A    between atoms: _279  and  _280
REMARK  115  A    between atoms: _279  and  _282
REMARK  116  A    between atoms: _282  and  _283
REMARK  117  A    between atoms: _286  and  _288
REMARK  118  A    between atoms: _288  and  _289
REMARK  119  A    between atoms: _291  and  _293
REMARK  120  A    between atoms: _293  and  _294
REMARK  121  A    between atoms: _293  and  _296
REMARK  122  A    between atoms: _296  and  _297
REMARK  123  A    between atoms: _299  and  _301
REMARK  124  A    between atoms: _301  and  _302
REMARK  125  A    between atoms: _301  and  _304
REMARK  126  A    between atoms: _304  and  _305
REMARK  127  A    between atoms: _308  and  _310
REMARK  128  A    between atoms: _310  and  _311
REMARK  129  A    between atoms: _310  and  _313
REMARK  130  A    between atoms: _313  and  _314
REMARK  131  A    between atoms: _314  and  _315
REMARK  132  A    between atoms: _317  and  _319
REMARK  133  A    between atoms: _319  and  _320
REMARK  134  A    between atoms: _319  and  _322
REMARK  135  A    between atoms: _322  and  _323
REMARK  136  A    between atoms: _326  and  _328
REMARK  137  A    between atoms: _328  and  _329
REMARK  138  A    between atoms: _328  and  _331
REMARK  139  A    between atoms: _331  and  _332
REMARK  140  A    between atoms: _338  and  _340
REMARK  141  A    between atoms: _340  and  _341
REMARK  142  A    between atoms: _340  and  _343
REMARK  143  A    between atoms: _343  and  _344
REMARK  144  A    between atoms: _350  and  _352
REMARK  145  A    between atoms: _352  and  _353
REMARK  146  A    between atoms: _352  and  _355
REMARK  147  A    between atoms: _358  and  _360
REMARK  148  A    between atoms: _360  and  _361
REMARK  149  A    between atoms: _360  and  _363
REMARK  150  A    between atoms: _363  and  _364
REMARK  151  A    between atoms: _364  and  _365
REMARK  152  A    between atoms: _365  and  _366
REMARK  153  A    between atoms: _366  and  _367
REMARK  154  A    between atoms: _371  and  _373
REMARK  155  A    between atoms: _373  and  _374
REMARK  156  A    between atoms: _373  and  _376
REMARK  157  A    between atoms: _376  and  _377
REMARK  158  A    between atoms: _382  and  _384
REMARK  159  A    between atoms: _384  and  _385
REMARK  160  A    between atoms: _384  and  _387
REMARK  161  A    between atoms: _387  and  _388
REMARK  162  A    between atoms: _390  and  _392
REMARK  163  A    between atoms: _392  and  _393
REMARK  164  A    between atoms: _392  and  _395
REMARK  165  A    between atoms: _395  and  _396
REMARK  166  A    between atoms: _399  and  _401
REMARK  167  A    between atoms: _401  and  _402
REMARK  168  A    between atoms: _401  and  _404
REMARK  169  A    between atoms: _404  and  _405
REMARK  170  A    between atoms: _408  and  _410
REMARK  171  A    between atoms: _410  and  _411
REMARK  172  A    between atoms: _410  and  _413
REMARK  173  A    between atoms: _413  and  _414
REMARK  174  A    between atoms: _417  and  _419
REMARK  175  A    between atoms: _419  and  _420
REMARK  176  A    between atoms: _419  and  _422
REMARK  177  A    between atoms: _422  and  _423
REMARK  178  A    between atoms: _423  and  _424
REMARK  179  A    between atoms: _426  and  _428
REMARK  180  A    between atoms: _428  and  _429
REMARK  181  A    between atoms: _428  and  _431
REMARK  182  A    between atoms: _431  and  _432
REMARK  183  A    between atoms: _432  and  _433
REMARK  184  A    between atoms: _436  and  _438
REMARK  185  A    between atoms: _438  and  _439
REMARK  186  A    between atoms: _438  and  _441
REMARK  187  A    between atoms: _441  and  _442
REMARK  188  A    between atoms: _444  and  _446
REMARK  189  A    between atoms: _446  and  _447
REMARK  190  A    between atoms: _446  and  _449
REMARK  191  A    between atoms: _449  and  _450
REMARK  192  A    between atoms: _453  and  _455
REMARK  193  A    between atoms: _455  and  _456
REMARK  194  A    between atoms: _455  and  _458
REMARK  195  A    between atoms: _458  and  _459
REMARK  196  A    between atoms: _461  and  _463
REMARK  197  A    between atoms: _463  and  _464
REMARK  198  A    between atoms: _463  and  _466
REMARK  199  A    between atoms: _466  and  _467
REMARK  200  A    between atoms: _470  and  _472
REMARK  201  A    between atoms: _472  and  _473
REMARK  202  A    between atoms: _472  and  _475
REMARK  203  A    between atoms: _475  and  _476
REMARK  204  A    between atoms: _479  and  _481
REMARK  205  A    between atoms: _481  and  _482
REMARK  206  A    between atoms: _481  and  _484
REMARK  207  A    between atoms: _484  and  _485
REMARK  208  A    between atoms: _485  and  _486
REMARK  209  A    between atoms: _486  and  _487
REMARK  210  A    between atoms: _487  and  _488
REMARK  211  A    between atoms: _492  and  _494
REMARK  212  A    between atoms: _494  and  _495
REMARK  213  A    between atoms: _497  and  _499
REMARK  214  A    between atoms: _499  and  _500
REMARK  215  A    between atoms: _499  and  _502
REMARK  216  A    between atoms: _502  and  _503
REMARK  217  A    between atoms: _508  and  _509
REMARK  218  A    between atoms: _511  and  _513
REMARK  219  A    between atoms: _513  and  _514
REMARK  220  A    between atoms: _516  and  _518
REMARK  221  A    between atoms: _518  and  _519
REMARK  222  A    between atoms: _518  and  _521
REMARK  223  A    between atoms: _521  and  _522
REMARK                            x       y       z     vdW  Elec       q    Type
REMARK                         _______ _______ _______ _____ _____    ______ ____
ROOT
ATOM      1  O   HOH     1      42.759  54.529  -3.064  0.00  0.00    +0.000 OA
ENDROOT
TORSDOF 0
REMARK  Name = ../refined-set-2016/3s2v/3s2v_pocket.pdb
REMARK  223 active torsions:
REMARK  status: ('A' for Active; 'I' for Inactive)
REMARK    1  A    between atoms: _1  and  _3
REMARK    2  A    between atoms: _3  and  _4
REMARK    3  A    between atoms: _3  and  _6
REMARK    4  A    between atoms: _6  and  _7
REMARK    5  A    between atoms: _10  and  _12
REMARK    6  A    between atoms: _12  and  _13
REMARK    7  A    between atoms: _12  and  _15
REMARK    8  A    between atoms: _15  and  _16
REMARK    9  A    between atoms: _19  and  _21
REMARK   10  A    between atoms: _21  and  _22
REMARK   11  A    between atoms: _21  and  _24
REMARK   12  A    between atoms: _24  and  _25
REMARK   13  A    between atoms: _25  and  _26
REMARK   14  A    between atoms: _29  and  _31
REMARK   15  A    between atoms: _31  and  _32
REMARK   16  A    between atoms: _31  and  _34
REMARK   17  A    between atoms: _34  and  _35
REMARK   18  A    between atoms: _35  and  _36
REMARK   19  A    between atoms: _40  and  _41
REMARK   20  A    between atoms: _46  and  _48
REMARK   21  A    between atoms: _48  and  _49
REMARK   22  A    between atoms: _48  and  _51
REMARK   23  A    between atoms: _51  and  _52
REMARK   24  A    between atoms: _57  and  _58
REMARK   25  A    between atoms: _60  and  _62
REMARK   26  A    between atoms: _62  and  _63
REMARK   27  A    between atoms: _62  and  _65
REMARK   28  A    between atoms: _68  and  _70
REMARK   29  A    between atoms: _70  and  _71
REMARK   30  A    between atoms: _70  and  _73
REMARK   31  A    between atoms: _73  and  _74
REMARK   32  A    between atoms: _74  and  _75
REMARK   33  A    between atoms: _75  and  _76
REMARK   34  A    between atoms: _76  and  _77
REMARK   35  A    between atoms: _81  and  _83
REMARK   36  A    between atoms: _83  and  _84
REMARK   37  A    between atoms: _83  and  _86
REMARK   38  A    between atoms: _86  and  _87
REMARK   39  A    between atoms: _92  and  _93
REMARK   40  A    between atoms: _95  and  _97
REMARK   41  A    between atoms: _97  and  _98
REMARK   42  A    between atoms: _100  and  _102
REMARK   43  A    between atoms: _102  and  _103
REMARK   44  A    between atoms: _106  and  _108
REMARK   45  A    between atoms: _108  and  _109
REMARK   46  A    between atoms: _108  and  _111
REMARK   47  A    between atoms: _111  and  _112
REMARK   48  A    between atoms: _112  and  _113
REMARK   49  A    between atoms: _115  and  _117
REMARK   50  A    between atoms: _117  and  _118
REMARK   51  A    between atoms: _117  and  _120
REMARK   52  A    between atoms: _123  and  _125
REMARK   53  A    between atoms: _125  and  _126
REMARK   54  A    between atoms: _130  and  _131
REMARK   55  A    between atoms: _136  and  _138
REMARK   56  A    between atoms: _138  and  _139
REMARK   57  A    between atoms: _138  and  _141
REMARK   58  A    between atoms: _141  and  _142
REMARK   59  A    between atoms: _145  and  _147
REMARK   60  A    between atoms: _147  and  _148
REMARK   61  A    between atoms: _147  and  _150
REMARK   62  A    between atoms: _150  and  _151
REMARK   63  A    between atoms: _154  and  _156
REMARK   64  A    between atoms: _156  and  _157
REMARK   65  A    between atoms: _156  and  _159
REMARK   66  A    between atoms: _159  and  _160
REMARK   67  A    between atoms: _163  and  _165
REMARK   68  A    between atoms: _165  and  _166
REMARK   69  A    between atoms: _165  and  _168
REMARK   70  A    between atoms: _168  and  _169
REMARK   71  A    between atoms: _172  and  _174
REMARK   72  A    between atoms: _174  and  _175
REMARK   73  A    between atoms: _174  and  _177
REMARK   74  A    between atoms: _177  and  _178
REMARK   75  A    between atoms: _178  and  _179
REMARK   76  A    between atoms: _179  and  _180
REMARK   77  A    between atoms: _189  and  _191
REMARK   78  A    between atoms: _191  and  _192
REMARK   79  A    between atoms: _191  and  _194
REMARK   80  A    between atoms: _194  and  _195
REMARK   81  A    between atoms: _201  and  _203
REMARK   82  A    between atoms: _203  and  _204
REMARK   83  A    between atoms: _203  and  _206
REMARK   84  A    between atoms: _206  and  _207
REMARK   85  A    between atoms: _207  and  _208
REMARK   86  A    between atoms: _210  and  _212
REMARK   87  A    between atoms: _212  and  _213
REMARK   88  A    between atoms: _212  and  _215
REMARK   89  A    between atoms: _215  and  _216
REMARK   90  A    between atoms: _219  and  _221
REMARK   91  A    between atoms: _221  and  _222
REMARK   92  A    between atoms: _224  and  _226
REMARK   93  A    between atoms: _226  and  _227
REMARK   94  A    between atoms: _226  and  _229
REMARK   95  A    between atoms: _229  and  _230
REMARK   96  A    between atoms: _233  and  _235
REMARK   97  A    between atoms: _235  and  _236
REMARK   98  A    between atoms: _235  and  _238
REMARK   99  A    between atoms: _238  and  _239
REMARK  100  A    between atoms: _241  and  _243
REMARK  101  A    between atoms: _243  and  _244
REMARK  102  A    between atoms: _246  and  _248
REMARK  103  A    between atoms: _248  and  _249
REMARK  104  A    between atoms: _252  and  _254
REMARK  105  A    between atoms: _254  and  _255
REMARK  106  A    between atoms: _254  and  _257
REMARK  107  A    between atoms: _260  and  _262
REMARK  108  A    between atoms: _262  and  _263
REMARK  109  A    between atoms: _262  and  _265
REMARK  110  A    between atoms: _265  and  _266
REMARK  111  A    between atoms: _266  and  _267
REMARK  112  A    between atoms: _267  and  _268
REMARK  113  A    between atoms: _277  and  _279
REMARK  114  A    between atoms: _279  and  _280
REMARK  115  A    between atoms: _279  and  _282
REMARK  116  A    between atoms: _282  and  _283
REMARK  117  A    between atoms: _286  and  _288
REMARK  118  A    between atoms: _288  and  _289
REMARK  119  A    between atoms: _291  and  _293
REMARK  120  A    between atoms: _293  and  _294
REMARK  121  A    between atoms: _293  and  _296
REMARK  122  A    between atoms: _296  and  _297
REMARK  123  A    between atoms: _299  and  _301
REMARK  124  A    between atoms: _301  and  _302
REMARK  125  A    between atoms: _301  and  _304
REMARK  126  A    between atoms: _304  and  _305
REMARK  127  A    between atoms: _308  and  _310
REMARK  128  A    between atoms: _310  and  _311
REMARK  129  A    between atoms: _310  and  _313
REMARK  130  A    between atoms: _313  and  _314
REMARK  131  A    between atoms: _314  and  _315
REMARK  132  A    between atoms: _317  and  _319
REMARK  133  A    between atoms: _319  and  _320
REMARK  134  A    between atoms: _319  and  _322
REMARK  135  A    between atoms: _322  and  _323
REMARK  136  A    between atoms: _326  and  _328
REMARK  137  A    between atoms: _328  and  _329
REMARK  138  A    between atoms: _328  and  _331
REMARK  139  A    between atoms: _331  and  _332
REMARK  140  A    between atoms: _338  and  _340
REMARK  141  A    between atoms: _340  and  _341
REMARK  142  A    between atoms: _340  and  _343
REMARK  143  A    between atoms: _343  and  _344
REMARK  144  A    between atoms: _350  and  _352
REMARK  145  A    between atoms: _352  and  _353
REMARK  146  A    between atoms: _352  and  _355
REMARK  147  A    between atoms: _358  and  _360
REMARK  148  A    between atoms: _360  and  _361
REMARK  149  A    between atoms: _360  and  _363
REMARK  150  A    between atoms: _363  and  _364
REMARK  151  A    between atoms: _364  and  _365
REMARK  152  A    between atoms: _365  and  _366
REMARK  153  A    between atoms: _366  and  _367
REMARK  154  A    between atoms: _371  and  _373
REMARK  155  A    between atoms: _373  and  _374
REMARK  156  A    between atoms: _373  and  _376
REMARK  157  A    between atoms: _376  and  _377
REMARK  158  A    between atoms: _382  and  _384
REMARK  159  A    between atoms: _384  and  _385
REMARK  160  A    between atoms: _384  and  _387
REMARK  161  A    between atoms: _387  and  _388
REMARK  162  A    between atoms: _390  and  _392
REMARK  163  A    between atoms: _392  and  _393
REMARK  164  A    between atoms: _392  and  _395
REMARK  165  A    between atoms: _395  and  _396
REMARK  166  A    between atoms: _399  and  _401
REMARK  167  A    between atoms: _401  and  _402
REMARK  168  A    between atoms: _401  and  _404
REMARK  169  A    between atoms: _404  and  _405
REMARK  170  A    between atoms: _408  and  _410
REMARK  171  A    between atoms: _410  and  _411
REMARK  172  A    between atoms: _410  and  _413
REMARK  173  A    between atoms: _413  and  _414
REMARK  174  A    between atoms: _417  and  _419
REMARK  175  A    between atoms: _419  and  _420
REMARK  176  A    between atoms: _419  and  _422
REMARK  177  A    between atoms: _422  and  _423
REMARK  178  A    between atoms: _423  and  _424
REMARK  179  A    between atoms: _426  and  _428
REMARK  180  A    between atoms: _428  and  _429
REMARK  181  A    between atoms: _428  and  _431
REMARK  182  A    between atoms: _431  and  _432
REMARK  183  A    between atoms: _432  and  _433
REMARK  184  A    between atoms: _436  and  _438
REMARK  185  A    between atoms: _438  and  _439
REMARK  186  A    between atoms: _438  and  _441
REMARK  187  A    between atoms: _441  and  _442
REMARK  188  A    between atoms: _444  and  _446
REMARK  189  A    between atoms: _446  and  _447
REMARK  190  A    between atoms: _446  and  _449
REMARK  191  A    between atoms: _449  and  _450
REMARK  192  A    between atoms: _453  and  _455
REMARK  193  A    between atoms: _455  and  _456
REMARK  194  A    between atoms: _455  and  _458
REMARK  195  A    between atoms: _458  and  _459
REMARK  196  A    between atoms: _461  and  _463
REMARK  197  A    between atoms: _463  and  _464
REMARK  198  A    between atoms: _463  and  _466
REMARK  199  A    between atoms: _466  and  _467
REMARK  200  A    between atoms: _470  and  _472
REMARK  201  A    between atoms: _472  and  _473
REMARK  202  A    between atoms: _472  and  _475
REMARK  203  A    between atoms: _475  and  _476
REMARK  204  A    between atoms: _479  and  _481
REMARK  205  A    between atoms: _481  and  _482
REMARK  206  A    between atoms: _481  and  _484
REMARK  207  A    between atoms: _484  and  _485
REMARK  208  A    between atoms: _485  and  _486
REMARK  209  A    between atoms: _486  and  _487
REMARK  210  A    between atoms: _487  and  _488
REMARK  211  A    between atoms: _492  and  _494
REMARK  212  A    between atoms: _494  and  _495
REMARK  213  A    between atoms: _497  and  _499
REMARK  214  A    between atoms: _499  and  _500
REMARK  215  A    between atoms: _499  and  _502
REMARK  216  A    between atoms: _502  and  _503
REMARK  217  A    between atoms: _508  and  _509
REMARK  218  A    between atoms: _511  and  _513
REMARK  219  A    between atoms: _513  and  _514
REMARK  220  A    between atoms: _516  and  _518
REMARK  221  A    between atoms: _518  and  _519
REMARK  222  A    between atoms: _518  and  _521
REMARK  223  A    between atoms: _521  and  _522
REMARK                            x       y       z     vdW  Elec       q    Type
REMARK                         _______ _______ _______ _____ _____    ______ ____
ROOT
ATOM      1  O   HOH     1      43.645  63.616   0.082  0.00  0.00    +0.000 OA
ENDROOT
TORSDOF 0
REMARK  Name = ../refined-set-2016/3s2v/3s2v_pocket.pdb
REMARK  223 active torsions:
REMARK  status: ('A' for Active; 'I' for Inactive)
REMARK    1  A    between atoms: _1  and  _3
REMARK    2  A    between atoms: _3  and  _4
REMARK    3  A    between atoms: _3  and  _6
REMARK    4  A    between atoms: _6  and  _7
REMARK    5  A    between atoms: _10  and  _12
REMARK    6  A    between atoms: _12  and  _13
REMARK    7  A    between atoms: _12  and  _15
REMARK    8  A    between atoms: _15  and  _16
REMARK    9  A    between atoms: _19  and  _21
REMARK   10  A    between atoms: _21  and  _22
REMARK   11  A    between atoms: _21  and  _24
REMARK   12  A    between atoms: _24  and  _25
REMARK   13  A    between atoms: _25  and  _26
REMARK   14  A    between atoms: _29  and  _31
REMARK   15  A    between atoms: _31  and  _32
REMARK   16  A    between atoms: _31  and  _34
REMARK   17  A    between atoms: _34  and  _35
REMARK   18  A    between atoms: _35  and  _36
REMARK   19  A    between atoms: _40  and  _41
REMARK   20  A    between atoms: _46  and  _48
REMARK   21  A    between atoms: _48  and  _49
REMARK   22  A    between atoms: _48  and  _51
REMARK   23  A    between atoms: _51  and  _52
REMARK   24  A    between atoms: _57  and  _58
REMARK   25  A    between atoms: _60  and  _62
REMARK   26  A    between atoms: _62  and  _63
REMARK   27  A    between atoms: _62  and  _65
REMARK   28  A    between atoms: _68  and  _70
REMARK   29  A    between atoms: _70  and  _71
REMARK   30  A    between atoms: _70  and  _73
REMARK   31  A    between atoms: _73  and  _74
REMARK   32  A    between atoms: _74  and  _75
REMARK   33  A    between atoms: _75  and  _76
REMARK   34  A    between atoms: _76  and  _77
REMARK   35  A    between atoms: _81  and  _83
REMARK   36  A    between atoms: _83  and  _84
REMARK   37  A    between atoms: _83  and  _86
REMARK   38  A    between atoms: _86  and  _87
REMARK   39  A    between atoms: _92  and  _93
REMARK   40  A    between atoms: _95  and  _97
REMARK   41  A    between atoms: _97  and  _98
REMARK   42  A    between atoms: _100  and  _102
REMARK   43  A    between atoms: _102  and  _103
REMARK   44  A    between atoms: _106  and  _108
REMARK   45  A    between atoms: _108  and  _109
REMARK   46  A    between atoms: _108  and  _111
REMARK   47  A    between atoms: _111  and  _112
REMARK   48  A    between atoms: _112  and  _113
REMARK   49  A    between atoms: _115  and  _117
REMARK   50  A    between atoms: _117  and  _118
REMARK   51  A    between atoms: _117  and  _120
REMARK   52  A    between atoms: _123  and  _125
REMARK   53  A    between atoms: _125  and  _126
REMARK   54  A    between atoms: _130  and  _131
REMARK   55  A    between atoms: _136  and  _138
REMARK   56  A    between atoms: _138  and  _139
REMARK   57  A    between atoms: _138  and  _141
REMARK   58  A    between atoms: _141  and  _142
REMARK   59  A    between atoms: _145  and  _147
REMARK   60  A    between atoms: _147  and  _148
REMARK   61  A    between atoms: _147  and  _150
REMARK   62  A    between atoms: _150  and  _151
REMARK   63  A    between atoms: _154  and  _156
REMARK   64  A    between atoms: _156  and  _157
REMARK   65  A    between atoms: _156  and  _159
REMARK   66  A    between atoms: _159  and  _160
REMARK   67  A    between atoms: _163  and  _165
REMARK   68  A    between atoms: _165  and  _166
REMARK   69  A    between atoms: _165  and  _168
REMARK   70  A    between atoms: _168  and  _169
REMARK   71  A    between atoms: _172  and  _174
REMARK   72  A    between atoms: _174  and  _175
REMARK   73  A    between atoms: _174  and  _177
REMARK   74  A    between atoms: _177  and  _178
REMARK   75  A    between atoms: _178  and  _179
REMARK   76  A    between atoms: _179  and  _180
REMARK   77  A    between atoms: _189  and  _191
REMARK   78  A    between atoms: _191  and  _192
REMARK   79  A    between atoms: _191  and  _194
REMARK   80  A    between atoms: _194  and  _195
REMARK   81  A    between atoms: _201  and  _203
REMARK   82  A    between atoms: _203  and  _204
REMARK   83  A    between atoms: _203  and  _206
REMARK   84  A    between atoms: _206  and  _207
REMARK   85  A    between atoms: _207  and  _208
REMARK   86  A    between atoms: _210  and  _212
REMARK   87  A    between atoms: _212  and  _213
REMARK   88  A    between atoms: _212  and  _215
REMARK   89  A    between atoms: _215  and  _216
REMARK   90  A    between atoms: _219  and  _221
REMARK   91  A    between atoms: _221  and  _222
REMARK   92  A    between atoms: _224  and  _226
REMARK   93  A    between atoms: _226  and  _227
REMARK   94  A    between atoms: _226  and  _229
REMARK   95  A    between atoms: _229  and  _230
REMARK   96  A    between atoms: _233  and  _235
REMARK   97  A    between atoms: _235  and  _236
REMARK   98  A    between atoms: _235  and  _238
REMARK   99  A    between atoms: _238  and  _239
REMARK  100  A    between atoms: _241  and  _243
REMARK  101  A    between atoms: _243  and  _244
REMARK  102  A    between atoms: _246  and  _248
REMARK  103  A    between atoms: _248  and  _249
REMARK  104  A    between atoms: _252  and  _254
REMARK  105  A    between atoms: _254  and  _255
REMARK  106  A    between atoms: _254  and  _257
REMARK  107  A    between atoms: _260  and  _262
REMARK  108  A    between atoms: _262  and  _263
REMARK  109  A    between atoms: _262  and  _265
REMARK  110  A    between atoms: _265  and  _266
REMARK  111  A    between atoms: _266  and  _267
REMARK  112  A    between atoms: _267  and  _268
REMARK  113  A    between atoms: _277  and  _279
REMARK  114  A    between atoms: _279  and  _280
REMARK  115  A    between atoms: _279  and  _282
REMARK  116  A    between atoms: _282  and  _283
REMARK  117  A    between atoms: _286  and  _288
REMARK  118  A    between atoms: _288  and  _289
REMARK  119  A    between atoms: _291  and  _293
REMARK  120  A    between atoms: _293  and  _294
REMARK  121  A    between atoms: _293  and  _296
REMARK  122  A    between atoms: _296  and  _297
REMARK  123  A    between atoms: _299  and  _301
REMARK  124  A    between atoms: _301  and  _302
REMARK  125  A    between atoms: _301  and  _304
REMARK  126  A    between atoms: _304  and  _305
REMARK  127  A    between atoms: _308  and  _310
REMARK  128  A    between atoms: _310  and  _311
REMARK  129  A    between atoms: _310  and  _313
REMARK  130  A    between atoms: _313  and  _314
REMARK  131  A    between atoms: _314  and  _315
REMARK  132  A    between atoms: _317  and  _319
REMARK  133  A    between atoms: _319  and  _320
REMARK  134  A    between atoms: _319  and  _322
REMARK  135  A    between atoms: _322  and  _323
REMARK  136  A    between atoms: _326  and  _328
REMARK  137  A    between atoms: _328  and  _329
REMARK  138  A    between atoms: _328  and  _331
REMARK  139  A    between atoms: _331  and  _332
REMARK  140  A    between atoms: _338  and  _340
REMARK  141  A    between atoms: _340  and  _341
REMARK  142  A    between atoms: _340  and  _343
REMARK  143  A    between atoms: _343  and  _344
REMARK  144  A    between atoms: _350  and  _352
REMARK  145  A    between atoms: _352  and  _353
REMARK  146  A    between atoms: _352  and  _355
REMARK  147  A    between atoms: _358  and  _360
REMARK  148  A    between atoms: _360  and  _361
REMARK  149  A    between atoms: _360  and  _363
REMARK  150  A    between atoms: _363  and  _364
REMARK  151  A    between atoms: _364  and  _365
REMARK  152  A    between atoms: _365  and  _366
REMARK  153  A    between atoms: _366  and  _367
REMARK  154  A    between atoms: _371  and  _373
REMARK  155  A    between atoms: _373  and  _374
REMARK  156  A    between atoms: _373  and  _376
REMARK  157  A    between atoms: _376  and  _377
REMARK  158  A    between atoms: _382  and  _384
REMARK  159  A    between atoms: _384  and  _385
REMARK  160  A    between atoms: _384  and  _387
REMARK  161  A    between atoms: _387  and  _388
REMARK  162  A    between atoms: _390  and  _392
REMARK  163  A    between atoms: _392  and  _393
REMARK  164  A    between atoms: _392  and  _395
REMARK  165  A    between atoms: _395  and  _396
REMARK  166  A    between atoms: _399  and  _401
REMARK  167  A    between atoms: _401  and  _402
REMARK  168  A    between atoms: _401  and  _404
REMARK  169  A    between atoms: _404  and  _405
REMARK  170  A    between atoms: _408  and  _410
REMARK  171  A    between atoms: _410  and  _411
REMARK  172  A    between atoms: _410  and  _413
REMARK  173  A    between atoms: _413  and  _414
REMARK  174  A    between atoms: _417  and  _419
REMARK  175  A    between atoms: _419  and  _420
REMARK  176  A    between atoms: _419  and  _422
REMARK  177  A    between atoms: _422  and  _423
REMARK  178  A    between atoms: _423  and  _424
REMARK  179  A    between atoms: _426  and  _428
REMARK  180  A    between atoms: _428  and  _429
REMARK  181  A    between atoms: _428  and  _431
REMARK  182  A    between atoms: _431  and  _432
REMARK  183  A    between atoms: _432  and  _433
REMARK  184  A    between atoms: _436  and  _438
REMARK  185  A    between atoms: _438  and  _439
REMARK  186  A    between atoms: _438  and  _441
REMARK  187  A    between atoms: _441  and  _442
REMARK  188  A    between atoms: _444  and  _446
REMARK  189  A    between atoms: _446  and  _447
REMARK  190  A    between atoms: _446  and  _449
REMARK  191  A    between atoms: _449  and  _450
REMARK  192  A    between atoms: _453  and  _455
REMARK  193  A    between atoms: _455  and  _456
REMARK  194  A    between atoms: _455  and  _458
REMARK  195  A    between atoms: _458  and  _459
REMARK  196  A    between atoms: _461  and  _463
REMARK  197  A    between atoms: _463  and  _464
REMARK  198  A    between atoms: _463  and  _466
REMARK  199  A    between atoms: _466  and  _467
REMARK  200  A    between atoms: _470  and  _472
REMARK  201  A    between atoms: _472  and  _473
REMARK  202  A    between atoms: _472  and  _475
REMARK  203  A    between atoms: _475  and  _476
REMARK  204  A    between atoms: _479  and  _481
REMARK  205  A    between atoms: _481  and  _482
REMARK  206  A    between atoms: _481  and  _484
REMARK  207  A    between atoms: _484  and  _485
REMARK  208  A    between atoms: _485  and  _486
REMARK  209  A    between atoms: _486  and  _487
REMARK  210  A    between atoms: _487  and  _488
REMARK  211  A    between atoms: _492  and  _494
REMARK  212  A    between atoms: _494  and  _495
REMARK  213  A    between atoms: _497  and  _499
REMARK  214  A    between atoms: _499  and  _500
REMARK  215  A    between atoms: _499  and  _502
REMARK  216  A    between atoms: _502  and  _503
REMARK  217  A    between atoms: _508  and  _509
REMARK  218  A    between atoms: _511  and  _513
REMARK  219  A    between atoms: _513  and  _514
REMARK  220  A    between atoms: _516  and  _518
REMARK  221  A    between atoms: _518  and  _519
REMARK  222  A    between atoms: _518  and  _521
REMARK  223  A    between atoms: _521  and  _522
REMARK                            x       y       z     vdW  Elec       q    Type
REMARK                         _______ _______ _______ _____ _____    ______ ____
ROOT
ATOM      1  O   HOH     1      43.165  60.717  -4.568  0.00  0.00    +0.000 OA
ENDROOT
TORSDOF 0
REMARK  Name = ../refined-set-2016/3s2v/3s2v_pocket.pdb
REMARK  223 active torsions:
REMARK  status: ('A' for Active; 'I' for Inactive)
REMARK    1  A    between atoms: _1  and  _3
REMARK    2  A    between atoms: _3  and  _4
REMARK    3  A    between atoms: _3  and  _6
REMARK    4  A    between atoms: _6  and  _7
REMARK    5  A    between atoms: _10  and  _12
REMARK    6  A    between atoms: _12  and  _13
REMARK    7  A    between atoms: _12  and  _15
REMARK    8  A    between atoms: _15  and  _16
REMARK    9  A    between atoms: _19  and  _21
REMARK   10  A    between atoms: _21  and  _22
REMARK   11  A    between atoms: _21  and  _24
REMARK   12  A    between atoms: _24  and  _25
REMARK   13  A    between atoms: _25  and  _26
REMARK   14  A    between atoms: _29  and  _31
REMARK   15  A    between atoms: _31  and  _32
REMARK   16  A    between atoms: _31  and  _34
REMARK   17  A    between atoms: _34  and  _35
REMARK   18  A    between atoms: _35  and  _36
REMARK   19  A    between atoms: _40  and  _41
REMARK   20  A    between atoms: _46  and  _48
REMARK   21  A    between atoms: _48  and  _49
REMARK   22  A    between atoms: _48  and  _51
REMARK   23  A    between atoms: _51  and  _52
REMARK   24  A    between atoms: _57  and  _58
REMARK   25  A    between atoms: _60  and  _62
REMARK   26  A    between atoms: _62  and  _63
REMARK   27  A    between atoms: _62  and  _65
REMARK   28  A    between atoms: _68  and  _70
REMARK   29  A    between atoms: _70  and  _71
REMARK   30  A    between atoms: _70  and  _73
REMARK   31  A    between atoms: _73  and  _74
REMARK   32  A    between atoms: _74  and  _75
REMARK   33  A    between atoms: _75  and  _76
REMARK   34  A    between atoms: _76  and  _77
REMARK   35  A    between atoms: _81  and  _83
REMARK   36  A    between atoms: _83  and  _84
REMARK   37  A    between atoms: _83  and  _86
REMARK   38  A    between atoms: _86  and  _87
REMARK   39  A    between atoms: _92  and  _93
REMARK   40  A    between atoms: _95  and  _97
REMARK   41  A    between atoms: _97  and  _98
REMARK   42  A    between atoms: _100  and  _102
REMARK   43  A    between atoms: _102  and  _103
REMARK   44  A    between atoms: _106  and  _108
REMARK   45  A    between atoms: _108  and  _109
REMARK   46  A    between atoms: _108  and  _111
REMARK   47  A    between atoms: _111  and  _112
REMARK   48  A    between atoms: _112  and  _113
REMARK   49  A    between atoms: _115  and  _117
REMARK   50  A    between atoms: _117  and  _118
REMARK   51  A    between atoms: _117  and  _120
REMARK   52  A    between atoms: _123  and  _125
REMARK   53  A    between atoms: _125  and  _126
REMARK   54  A    between atoms: _130  and  _131
REMARK   55  A    between atoms: _136  and  _138
REMARK   56  A    between atoms: _138  and  _139
REMARK   57  A    between atoms: _138  and  _141
REMARK   58  A    between atoms: _141  and  _142
REMARK   59  A    between atoms: _145  and  _147
REMARK   60  A    between atoms: _147  and  _148
REMARK   61  A    between atoms: _147  and  _150
REMARK   62  A    between atoms: _150  and  _151
REMARK   63  A    between atoms: _154  and  _156
REMARK   64  A    between atoms: _156  and  _157
REMARK   65  A    between atoms: _156  and  _159
REMARK   66  A    between atoms: _159  and  _160
REMARK   67  A    between atoms: _163  and  _165
REMARK   68  A    between atoms: _165  and  _166
REMARK   69  A    between atoms: _165  and  _168
REMARK   70  A    between atoms: _168  and  _169
REMARK   71  A    between atoms: _172  and  _174
REMARK   72  A    between atoms: _174  and  _175
REMARK   73  A    between atoms: _174  and  _177
REMARK   74  A    between atoms: _177  and  _178
REMARK   75  A    between atoms: _178  and  _179
REMARK   76  A    between atoms: _179  and  _180
REMARK   77  A    between atoms: _189  and  _191
REMARK   78  A    between atoms: _191  and  _192
REMARK   79  A    between atoms: _191  and  _194
REMARK   80  A    between atoms: _194  and  _195
REMARK   81  A    between atoms: _201  and  _203
REMARK   82  A    between atoms: _203  and  _204
REMARK   83  A    between atoms: _203  and  _206
REMARK   84  A    between atoms: _206  and  _207
REMARK   85  A    between atoms: _207  and  _208
REMARK   86  A    between atoms: _210  and  _212
REMARK   87  A    between atoms: _212  and  _213
REMARK   88  A    between atoms: _212  and  _215
REMARK   89  A    between atoms: _215  and  _216
REMARK   90  A    between atoms: _219  and  _221
REMARK   91  A    between atoms: _221  and  _222
REMARK   92  A    between atoms: _224  and  _226
REMARK   93  A    between atoms: _226  and  _227
REMARK   94  A    between atoms: _226  and  _229
REMARK   95  A    between atoms: _229  and  _230
REMARK   96  A    between atoms: _233  and  _235
REMARK   97  A    between atoms: _235  and  _236
REMARK   98  A    between atoms: _235  and  _238
REMARK   99  A    between atoms: _238  and  _239
REMARK  100  A    between atoms: _241  and  _243
REMARK  101  A    between atoms: _243  and  _244
REMARK  102  A    between atoms: _246  and  _248
REMARK  103  A    between atoms: _248  and  _249
REMARK  104  A    between atoms: _252  and  _254
REMARK  105  A    between atoms: _254  and  _255
REMARK  106  A    between atoms: _254  and  _257
REMARK  107  A    between atoms: _260  and  _262
REMARK  108  A    between atoms: _262  and  _263
REMARK  109  A    between atoms: _262  and  _265
REMARK  110  A    between atoms: _265  and  _266
REMARK  111  A    between atoms: _266  and  _267
REMARK  112  A    between atoms: _267  and  _268
REMARK  113  A    between atoms: _277  and  _279
REMARK  114  A    between atoms: _279  and  _280
REMARK  115  A    between atoms: _279  and  _282
REMARK  116  A    between atoms: _282  and  _283
REMARK  117  A    between atoms: _286  and  _288
REMARK  118  A    between atoms: _288  and  _289
REMARK  119  A    between atoms: _291  and  _293
REMARK  120  A    between atoms: _293  and  _294
REMARK  121  A    between atoms: _293  and  _296
REMARK  122  A    between atoms: _296  and  _297
REMARK  123  A    between atoms: _299  and  _301
REMARK  124  A    between atoms: _301  and  _302
REMARK  125  A    between atoms: _301  and  _304
REMARK  126  A    between atoms: _304  and  _305
REMARK  127  A    between atoms: _308  and  _310
REMARK  128  A    between atoms: _310  and  _311
REMARK  129  A    between atoms: _310  and  _313
REMARK  130  A    between atoms: _313  and  _314
REMARK  131  A    between atoms: _314  and  _315
REMARK  132  A    between atoms: _317  and  _319
REMARK  133  A    between atoms: _319  and  _320
REMARK  134  A    between atoms: _319  and  _322
REMARK  135  A    between atoms: _322  and  _323
REMARK  136  A    between atoms: _326  and  _328
REMARK  137  A    between atoms: _328  and  _329
REMARK  138  A    between atoms: _328  and  _331
REMARK  139  A    between atoms: _331  and  _332
REMARK  140  A    between atoms: _338  and  _340
REMARK  141  A    between atoms: _340  and  _341
REMARK  142  A    between atoms: _340  and  _343
REMARK  143  A    between atoms: _343  and  _344
REMARK  144  A    between atoms: _350  and  _352
REMARK  145  A    between atoms: _352  and  _353
REMARK  146  A    between atoms: _352  and  _355
REMARK  147  A    between atoms: _358  and  _360
REMARK  148  A    between atoms: _360  and  _361
REMARK  149  A    between atoms: _360  and  _363
REMARK  150  A    between atoms: _363  and  _364
REMARK  151  A    between atoms: _364  and  _365
REMARK  152  A    between atoms: _365  and  _366
REMARK  153  A    between atoms: _366  and  _367
REMARK  154  A    between atoms: _371  and  _373
REMARK  155  A    between atoms: _373  and  _374
REMARK  156  A    between atoms: _373  and  _376
REMARK  157  A    between atoms: _376  and  _377
REMARK  158  A    between atoms: _382  and  _384
REMARK  159  A    between atoms: _384  and  _385
REMARK  160  A    between atoms: _384  and  _387
REMARK  161  A    between atoms: _387  and  _388
REMARK  162  A    between atoms: _390  and  _392
REMARK  163  A    between atoms: _392  and  _393
REMARK  164  A    between atoms: _392  and  _395
REMARK  165  A    between atoms: _395  and  _396
REMARK  166  A    between atoms: _399  and  _401
REMARK  167  A    between atoms: _401  and  _402
REMARK  168  A    between atoms: _401  and  _404
REMARK  169  A    between atoms: _404  and  _405
REMARK  170  A    between atoms: _408  and  _410
REMARK  171  A    between atoms: _410  and  _411
REMARK  172  A    between atoms: _410  and  _413
REMARK  173  A    between atoms: _413  and  _414
REMARK  174  A    between atoms: _417  and  _419
REMARK  175  A    between atoms: _419  and  _420
REMARK  176  A    between atoms: _419  and  _422
REMARK  177  A    between atoms: _422  and  _423
REMARK  178  A    between atoms: _423  and  _424
REMARK  179  A    between atoms: _426  and  _428
REMARK  180  A    between atoms: _428  and  _429
REMARK  181  A    between atoms: _428  and  _431
REMARK  182  A    between atoms: _431  and  _432
REMARK  183  A    between atoms: _432  and  _433
REMARK  184  A    between atoms: _436  and  _438
REMARK  185  A    between atoms: _438  and  _439
REMARK  186  A    between atoms: _438  and  _441
REMARK  187  A    between atoms: _441  and  _442
REMARK  188  A    between atoms: _444  and  _446
REMARK  189  A    between atoms: _446  and  _447
REMARK  190  A    between atoms: _446  and  _449
REMARK  191  A    between atoms: _449  and  _450
REMARK  192  A    between atoms: _453  and  _455
REMARK  193  A    between atoms: _455  and  _456
REMARK  194  A    between atoms: _455  and  _458
REMARK  195  A    between atoms: _458  and  _459
REMARK  196  A    between atoms: _461  and  _463
REMARK  197  A    between atoms: _463  and  _464
REMARK  198  A    between atoms: _463  and  _466
REMARK  199  A    between atoms: _466  and  _467
REMARK  200  A    between atoms: _470  and  _472
REMARK  201  A    between atoms: _472  and  _473
REMARK  202  A    between atoms: _472  and  _475
REMARK  203  A    between atoms: _475  and  _476
REMARK  204  A    between atoms: _479  and  _481
REMARK  205  A    between atoms: _481  and  _482
REMARK  206  A    between atoms: _481  and  _484
REMARK  207  A    between atoms: _484  and  _485
REMARK  208  A    between atoms: _485  and  _486
REMARK  209  A    between atoms: _486  and  _487
REMARK  210  A    between atoms: _487  and  _488
REMARK  211  A    between atoms: _492  and  _494
REMARK  212  A    between atoms: _494  and  _495
REMARK  213  A    between atoms: _497  and  _499
REMARK  214  A    between atoms: _499  and  _500
REMARK  215  A    between atoms: _499  and  _502
REMARK  216  A    between atoms: _502  and  _503
REMARK  217  A    between atoms: _508  and  _509
REMARK  218  A    between atoms: _511  and  _513
REMARK  219  A    between atoms: _513  and  _514
REMARK  220  A    between atoms: _516  and  _518
REMARK  221  A    between atoms: _518  and  _519
REMARK  222  A    between atoms: _518  and  _521
REMARK  223  A    between atoms: _521  and  _522
REMARK                            x       y       z     vdW  Elec       q    Type
REMARK                         _______ _______ _______ _____ _____    ______ ____
ROOT
ATOM      1  O   HOH     1      50.095  61.002   0.803  0.00  0.00    +0.000 OA
ENDROOT
TORSDOF 0
REMARK  Name = ../refined-set-2016/3s2v/3s2v_pocket.pdb
REMARK  223 active torsions:
REMARK  status: ('A' for Active; 'I' for Inactive)
REMARK    1  A    between atoms: _1  and  _3
REMARK    2  A    between atoms: _3  and  _4
REMARK    3  A    between atoms: _3  and  _6
REMARK    4  A    between atoms: _6  and  _7
REMARK    5  A    between atoms: _10  and  _12
REMARK    6  A    between atoms: _12  and  _13
REMARK    7  A    between atoms: _12  and  _15
REMARK    8  A    between atoms: _15  and  _16
REMARK    9  A    between atoms: _19  and  _21
REMARK   10  A    between atoms: _21  and  _22
REMARK   11  A    between atoms: _21  and  _24
REMARK   12  A    between atoms: _24  and  _25
REMARK   13  A    between atoms: _25  and  _26
REMARK   14  A    between atoms: _29  and  _31
REMARK   15  A    between atoms: _31  and  _32
REMARK   16  A    between atoms: _31  and  _34
REMARK   17  A    between atoms: _34  and  _35
REMARK   18  A    between atoms: _35  and  _36
REMARK   19  A    between atoms: _40  and  _41
REMARK   20  A    between atoms: _46  and  _48
REMARK   21  A    between atoms: _48  and  _49
REMARK   22  A    between atoms: _48  and  _51
REMARK   23  A    between atoms: _51  and  _52
REMARK   24  A    between atoms: _57  and  _58
REMARK   25  A    between atoms: _60  and  _62
REMARK   26  A    between atoms: _62  and  _63
REMARK   27  A    between atoms: _62  and  _65
REMARK   28  A    between atoms: _68  and  _70
REMARK   29  A    between atoms: _70  and  _71
REMARK   30  A    between atoms: _70  and  _73
REMARK   31  A    between atoms: _73  and  _74
REMARK   32  A    between atoms: _74  and  _75
REMARK   33  A    between atoms: _75  and  _76
REMARK   34  A    between atoms: _76  and  _77
REMARK   35  A    between atoms: _81  and  _83
REMARK   36  A    between atoms: _83  and  _84
REMARK   37  A    between atoms: _83  and  _86
REMARK   38  A    between atoms: _86  and  _87
REMARK   39  A    between atoms: _92  and  _93
REMARK   40  A    between atoms: _95  and  _97
REMARK   41  A    between atoms: _97  and  _98
REMARK   42  A    between atoms: _100  and  _102
REMARK   43  A    between atoms: _102  and  _103
REMARK   44  A    between atoms: _106  and  _108
REMARK   45  A    between atoms: _108  and  _109
REMARK   46  A    between atoms: _108  and  _111
REMARK   47  A    between atoms: _111  and  _112
REMARK   48  A    between atoms: _112  and  _113
REMARK   49  A    between atoms: _115  and  _117
REMARK   50  A    between atoms: _117  and  _118
REMARK   51  A    between atoms: _117  and  _120
REMARK   52  A    between atoms: _123  and  _125
REMARK   53  A    between atoms: _125  and  _126
REMARK   54  A    between atoms: _130  and  _131
REMARK   55  A    between atoms: _136  and  _138
REMARK   56  A    between atoms: _138  and  _139
REMARK   57  A    between atoms: _138  and  _141
REMARK   58  A    between atoms: _141  and  _142
REMARK   59  A    between atoms: _145  and  _147
REMARK   60  A    between atoms: _147  and  _148
REMARK   61  A    between atoms: _147  and  _150
REMARK   62  A    between atoms: _150  and  _151
REMARK   63  A    between atoms: _154  and  _156
REMARK   64  A    between atoms: _156  and  _157
REMARK   65  A    between atoms: _156  and  _159
REMARK   66  A    between atoms: _159  and  _160
REMARK   67  A    between atoms: _163  and  _165
REMARK   68  A    between atoms: _165  and  _166
REMARK   69  A    between atoms: _165  and  _168
REMARK   70  A    between atoms: _168  and  _169
REMARK   71  A    between atoms: _172  and  _174
REMARK   72  A    between atoms: _174  and  _175
REMARK   73  A    between atoms: _174  and  _177
REMARK   74  A    between atoms: _177  and  _178
REMARK   75  A    between atoms: _178  and  _179
REMARK   76  A    between atoms: _179  and  _180
REMARK   77  A    between atoms: _189  and  _191
REMARK   78  A    between atoms: _191  and  _192
REMARK   79  A    between atoms: _191  and  _194
REMARK   80  A    between atoms: _194  and  _195
REMARK   81  A    between atoms: _201  and  _203
REMARK   82  A    between atoms: _203  and  _204
REMARK   83  A    between atoms: _203  and  _206
REMARK   84  A    between atoms: _206  and  _207
REMARK   85  A    between atoms: _207  and  _208
REMARK   86  A    between atoms: _210  and  _212
REMARK   87  A    between atoms: _212  and  _213
REMARK   88  A    between atoms: _212  and  _215
REMARK   89  A    between atoms: _215  and  _216
REMARK   90  A    between atoms: _219  and  _221
REMARK   91  A    between atoms: _221  and  _222
REMARK   92  A    between atoms: _224  and  _226
REMARK   93  A    between atoms: _226  and  _227
REMARK   94  A    between atoms: _226  and  _229
REMARK   95  A    between atoms: _229  and  _230
REMARK   96  A    between atoms: _233  and  _235
REMARK   97  A    between atoms: _235  and  _236
REMARK   98  A    between atoms: _235  and  _238
REMARK   99  A    between atoms: _238  and  _239
REMARK  100  A    between atoms: _241  and  _243
REMARK  101  A    between atoms: _243  and  _244
REMARK  102  A    between atoms: _246  and  _248
REMARK  103  A    between atoms: _248  and  _249
REMARK  104  A    between atoms: _252  and  _254
REMARK  105  A    between atoms: _254  and  _255
REMARK  106  A    between atoms: _254  and  _257
REMARK  107  A    between atoms: _260  and  _262
REMARK  108  A    between atoms: _262  and  _263
REMARK  109  A    between atoms: _262  and  _265
REMARK  110  A    between atoms: _265  and  _266
REMARK  111  A    between atoms: _266  and  _267
REMARK  112  A    between atoms: _267  and  _268
REMARK  113  A    between atoms: _277  and  _279
REMARK  114  A    between atoms: _279  and  _280
REMARK  115  A    between atoms: _279  and  _282
REMARK  116  A    between atoms: _282  and  _283
REMARK  117  A    between atoms: _286  and  _288
REMARK  118  A    between atoms: _288  and  _289
REMARK  119  A    between atoms: _291  and  _293
REMARK  120  A    between atoms: _293  and  _294
REMARK  121  A    between atoms: _293  and  _296
REMARK  122  A    between atoms: _296  and  _297
REMARK  123  A    between atoms: _299  and  _301
REMARK  124  A    between atoms: _301  and  _302
REMARK  125  A    between atoms: _301  and  _304
REMARK  126  A    between atoms: _304  and  _305
REMARK  127  A    between atoms: _308  and  _310
REMARK  128  A    between atoms: _310  and  _311
REMARK  129  A    between atoms: _310  and  _313
REMARK  130  A    between atoms: _313  and  _314
REMARK  131  A    between atoms: _314  and  _315
REMARK  132  A    between atoms: _317  and  _319
REMARK  133  A    between atoms: _319  and  _320
REMARK  134  A    between atoms: _319  and  _322
REMARK  135  A    between atoms: _322  and  _323
REMARK  136  A    between atoms: _326  and  _328
REMARK  137  A    between atoms: _328  and  _329
REMARK  138  A    between atoms: _328  and  _331
REMARK  139  A    between atoms: _331  and  _332
REMARK  140  A    between atoms: _338  and  _340
REMARK  141  A    between atoms: _340  and  _341
REMARK  142  A    between atoms: _340  and  _343
REMARK  143  A    between atoms: _343  and  _344
REMARK  144  A    between atoms: _350  and  _352
REMARK  145  A    between atoms: _352  and  _353
REMARK  146  A    between atoms: _352  and  _355
REMARK  147  A    between atoms: _358  and  _360
REMARK  148  A    between atoms: _360  and  _361
REMARK  149  A    between atoms: _360  and  _363
REMARK  150  A    between atoms: _363  and  _364
REMARK  151  A    between atoms: _364  and  _365
REMARK  152  A    between atoms: _365  and  _366
REMARK  153  A    between atoms: _366  and  _367
REMARK  154  A    between atoms: _371  and  _373
REMARK  155  A    between atoms: _373  and  _374
REMARK  156  A    between atoms: _373  and  _376
REMARK  157  A    between atoms: _376  and  _377
REMARK  158  A    between atoms: _382  and  _384
REMARK  159  A    between atoms: _384  and  _385
REMARK  160  A    between atoms: _384  and  _387
REMARK  161  A    between atoms: _387  and  _388
REMARK  162  A    between atoms: _390  and  _392
REMARK  163  A    between atoms: _392  and  _393
REMARK  164  A    between atoms: _392  and  _395
REMARK  165  A    between atoms: _395  and  _396
REMARK  166  A    between atoms: _399  and  _401
REMARK  167  A    between atoms: _401  and  _402
REMARK  168  A    between atoms: _401  and  _404
REMARK  169  A    between atoms: _404  and  _405
REMARK  170  A    between atoms: _408  and  _410
REMARK  171  A    between atoms: _410  and  _411
REMARK  172  A    between atoms: _410  and  _413
REMARK  173  A    between atoms: _413  and  _414
REMARK  174  A    between atoms: _417  and  _419
REMARK  175  A    between atoms: _419  and  _420
REMARK  176  A    between atoms: _419  and  _422
REMARK  177  A    between atoms: _422  and  _423
REMARK  178  A    between atoms: _423  and  _424
REMARK  179  A    between atoms: _426  and  _428
REMARK  180  A    between atoms: _428  and  _429
REMARK  181  A    between atoms: _428  and  _431
REMARK  182  A    between atoms: _431  and  _432
REMARK  183  A    between atoms: _432  and  _433
REMARK  184  A    between atoms: _436  and  _438
REMARK  185  A    between atoms: _438  and  _439
REMARK  186  A    between atoms: _438  and  _441
REMARK  187  A    between atoms: _441  and  _442
REMARK  188  A    between atoms: _444  and  _446
REMARK  189  A    between atoms: _446  and  _447
REMARK  190  A    between atoms: _446  and  _449
REMARK  191  A    between atoms: _449  and  _450
REMARK  192  A    between atoms: _453  and  _455
REMARK  193  A    between atoms: _455  and  _456
REMARK  194  A    between atoms: _455  and  _458
REMARK  195  A    between atoms: _458  and  _459
REMARK  196  A    between atoms: _461  and  _463
REMARK  197  A    between atoms: _463  and  _464
REMARK  198  A    between atoms: _463  and  _466
REMARK  199  A    between atoms: _466  and  _467
REMARK  200  A    between atoms: _470  and  _472
REMARK  201  A    between atoms: _472  and  _473
REMARK  202  A    between atoms: _472  and  _475
REMARK  203  A    between atoms: _475  and  _476
REMARK  204  A    between atoms: _479  and  _481
REMARK  205  A    between atoms: _481  and  _482
REMARK  206  A    between atoms: _481  and  _484
REMARK  207  A    between atoms: _484  and  _485
REMARK  208  A    between atoms: _485  and  _486
REMARK  209  A    between atoms: _486  and  _487
REMARK  210  A    between atoms: _487  and  _488
REMARK  211  A    between atoms: _492  and  _494
REMARK  212  A    between atoms: _494  and  _495
REMARK  213  A    between atoms: _497  and  _499
REMARK  214  A    between atoms: _499  and  _500
REMARK  215  A    between atoms: _499  and  _502
REMARK  216  A    between atoms: _502  and  _503
REMARK  217  A    between atoms: _508  and  _509
REMARK  218  A    between atoms: _511  and  _513
REMARK  219  A    between atoms: _513  and  _514
REMARK  220  A    between atoms: _516  and  _518
REMARK  221  A    between atoms: _518  and  _519
REMARK  222  A    between atoms: _518  and  _521
REMARK  223  A    between atoms: _521  and  _522
REMARK                            x       y       z     vdW  Elec       q    Type
REMARK                         _______ _______ _______ _____ _____    ______ ____
ROOT
ATOM      1  O   HOH     1      44.487  55.290   8.829  0.00  0.00    +0.000 OA
ENDROOT
TORSDOF 0
REMARK  Name = ../refined-set-2016/3s2v/3s2v_pocket.pdb
REMARK  223 active torsions:
REMARK  status: ('A' for Active; 'I' for Inactive)
REMARK    1  A    between atoms: _1  and  _3
REMARK    2  A    between atoms: _3  and  _4
REMARK    3  A    between atoms: _3  and  _6
REMARK    4  A    between atoms: _6  and  _7
REMARK    5  A    between atoms: _10  and  _12
REMARK    6  A    between atoms: _12  and  _13
REMARK    7  A    between atoms: _12  and  _15
REMARK    8  A    between atoms: _15  and  _16
REMARK    9  A    between atoms: _19  and  _21
REMARK   10  A    between atoms: _21  and  _22
REMARK   11  A    between atoms: _21  and  _24
REMARK   12  A    between atoms: _24  and  _25
REMARK   13  A    between atoms: _25  and  _26
REMARK   14  A    between atoms: _29  and  _31
REMARK   15  A    between atoms: _31  and  _32
REMARK   16  A    between atoms: _31  and  _34
REMARK   17  A    between atoms: _34  and  _35
REMARK   18  A    between atoms: _35  and  _36
REMARK   19  A    between atoms: _40  and  _41
REMARK   20  A    between atoms: _46  and  _48
REMARK   21  A    between atoms: _48  and  _49
REMARK   22  A    between atoms: _48  and  _51
REMARK   23  A    between atoms: _51  and  _52
REMARK   24  A    between atoms: _57  and  _58
REMARK   25  A    between atoms: _60  and  _62
REMARK   26  A    between atoms: _62  and  _63
REMARK   27  A    between atoms: _62  and  _65
REMARK   28  A    between atoms: _68  and  _70
REMARK   29  A    between atoms: _70  and  _71
REMARK   30  A    between atoms: _70  and  _73
REMARK   31  A    between atoms: _73  and  _74
REMARK   32  A    between atoms: _74  and  _75
REMARK   33  A    between atoms: _75  and  _76
REMARK   34  A    between atoms: _76  and  _77
REMARK   35  A    between atoms: _81  and  _83
REMARK   36  A    between atoms: _83  and  _84
REMARK   37  A    between atoms: _83  and  _86
REMARK   38  A    between atoms: _86  and  _87
REMARK   39  A    between atoms: _92  and  _93
REMARK   40  A    between atoms: _95  and  _97
REMARK   41  A    between atoms: _97  and  _98
REMARK   42  A    between atoms: _100  and  _102
REMARK   43  A    between atoms: _102  and  _103
REMARK   44  A    between atoms: _106  and  _108
REMARK   45  A    between atoms: _108  and  _109
REMARK   46  A    between atoms: _108  and  _111
REMARK   47  A    between atoms: _111  and  _112
REMARK   48  A    between atoms: _112  and  _113
REMARK   49  A    between atoms: _115  and  _117
REMARK   50  A    between atoms: _117  and  _118
REMARK   51  A    between atoms: _117  and  _120
REMARK   52  A    between atoms: _123  and  _125
REMARK   53  A    between atoms: _125  and  _126
REMARK   54  A    between atoms: _130  and  _131
REMARK   55  A    between atoms: _136  and  _138
REMARK   56  A    between atoms: _138  and  _139
REMARK   57  A    between atoms: _138  and  _141
REMARK   58  A    between atoms: _141  and  _142
REMARK   59  A    between atoms: _145  and  _147
REMARK   60  A    between atoms: _147  and  _148
REMARK   61  A    between atoms: _147  and  _150
REMARK   62  A    between atoms: _150  and  _151
REMARK   63  A    between atoms: _154  and  _156
REMARK   64  A    between atoms: _156  and  _157
REMARK   65  A    between atoms: _156  and  _159
REMARK   66  A    between atoms: _159  and  _160
REMARK   67  A    between atoms: _163  and  _165
REMARK   68  A    between atoms: _165  and  _166
REMARK   69  A    between atoms: _165  and  _168
REMARK   70  A    between atoms: _168  and  _169
REMARK   71  A    between atoms: _172  and  _174
REMARK   72  A    between atoms: _174  and  _175
REMARK   73  A    between atoms: _174  and  _177
REMARK   74  A    between atoms: _177  and  _178
REMARK   75  A    between atoms: _178  and  _179
REMARK   76  A    between atoms: _179  and  _180
REMARK   77  A    between atoms: _189  and  _191
REMARK   78  A    between atoms: _191  and  _192
REMARK   79  A    between atoms: _191  and  _194
REMARK   80  A    between atoms: _194  and  _195
REMARK   81  A    between atoms: _201  and  _203
REMARK   82  A    between atoms: _203  and  _204
REMARK   83  A    between atoms: _203  and  _206
REMARK   84  A    between atoms: _206  and  _207
REMARK   85  A    between atoms: _207  and  _208
REMARK   86  A    between atoms: _210  and  _212
REMARK   87  A    between atoms: _212  and  _213
REMARK   88  A    between atoms: _212  and  _215
REMARK   89  A    between atoms: _215  and  _216
REMARK   90  A    between atoms: _219  and  _221
REMARK   91  A    between atoms: _221  and  _222
REMARK   92  A    between atoms: _224  and  _226
REMARK   93  A    between atoms: _226  and  _227
REMARK   94  A    between atoms: _226  and  _229
REMARK   95  A    between atoms: _229  and  _230
REMARK   96  A    between atoms: _233  and  _235
REMARK   97  A    between atoms: _235  and  _236
REMARK   98  A    between atoms: _235  and  _238
REMARK   99  A    between atoms: _238  and  _239
REMARK  100  A    between atoms: _241  and  _243
REMARK  101  A    between atoms: _243  and  _244
REMARK  102  A    between atoms: _246  and  _248
REMARK  103  A    between atoms: _248  and  _249
REMARK  104  A    between atoms: _252  and  _254
REMARK  105  A    between atoms: _254  and  _255
REMARK  106  A    between atoms: _254  and  _257
REMARK  107  A    between atoms: _260  and  _262
REMARK  108  A    between atoms: _262  and  _263
REMARK  109  A    between atoms: _262  and  _265
REMARK  110  A    between atoms: _265  and  _266
REMARK  111  A    between atoms: _266  and  _267
REMARK  112  A    between atoms: _267  and  _268
REMARK  113  A    between atoms: _277  and  _279
REMARK  114  A    between atoms: _279  and  _280
REMARK  115  A    between atoms: _279  and  _282
REMARK  116  A    between atoms: _282  and  _283
REMARK  117  A    between atoms: _286  and  _288
REMARK  118  A    between atoms: _288  and  _289
REMARK  119  A    between atoms: _291  and  _293
REMARK  120  A    between atoms: _293  and  _294
REMARK  121  A    between atoms: _293  and  _296
REMARK  122  A    between atoms: _296  and  _297
REMARK  123  A    between atoms: _299  and  _301
REMARK  124  A    between atoms: _301  and  _302
REMARK  125  A    between atoms: _301  and  _304
REMARK  126  A    between atoms: _304  and  _305
REMARK  127  A    between atoms: _308  and  _310
REMARK  128  A    between atoms: _310  and  _311
REMARK  129  A    between atoms: _310  and  _313
REMARK  130  A    between atoms: _313  and  _314
REMARK  131  A    between atoms: _314  and  _315
REMARK  132  A    between atoms: _317  and  _319
REMARK  133  A    between atoms: _319  and  _320
REMARK  134  A    between atoms: _319  and  _322
REMARK  135  A    between atoms: _322  and  _323
REMARK  136  A    between atoms: _326  and  _328
REMARK  137  A    between atoms: _328  and  _329
REMARK  138  A    between atoms: _328  and  _331
REMARK  139  A    between atoms: _331  and  _332
REMARK  140  A    between atoms: _338  and  _340
REMARK  141  A    between atoms: _340  and  _341
REMARK  142  A    between atoms: _340  and  _343
REMARK  143  A    between atoms: _343  and  _344
REMARK  144  A    between atoms: _350  and  _352
REMARK  145  A    between atoms: _352  and  _353
REMARK  146  A    between atoms: _352  and  _355
REMARK  147  A    between atoms: _358  and  _360
REMARK  148  A    between atoms: _360  and  _361
REMARK  149  A    between atoms: _360  and  _363
REMARK  150  A    between atoms: _363  and  _364
REMARK  151  A    between atoms: _364  and  _365
REMARK  152  A    between atoms: _365  and  _366
REMARK  153  A    between atoms: _366  and  _367
REMARK  154  A    between atoms: _371  and  _373
REMARK  155  A    between atoms: _373  and  _374
REMARK  156  A    between atoms: _373  and  _376
REMARK  157  A    between atoms: _376  and  _377
REMARK  158  A    between atoms: _382  and  _384
REMARK  159  A    between atoms: _384  and  _385
REMARK  160  A    between atoms: _384  and  _387
REMARK  161  A    between atoms: _387  and  _388
REMARK  162  A    between atoms: _390  and  _392
REMARK  163  A    between atoms: _392  and  _393
REMARK  164  A    between atoms: _392  and  _395
REMARK  165  A    between atoms: _395  and  _396
REMARK  166  A    between atoms: _399  and  _401
REMARK  167  A    between atoms: _401  and  _402
REMARK  168  A    between atoms: _401  and  _404
REMARK  169  A    between atoms: _404  and  _405
REMARK  170  A    between atoms: _408  and  _410
REMARK  171  A    between atoms: _410  and  _411
REMARK  172  A    between atoms: _410  and  _413
REMARK  173  A    between atoms: _413  and  _414
REMARK  174  A    between atoms: _417  and  _419
REMARK  175  A    between atoms: _419  and  _420
REMARK  176  A    between atoms: _419  and  _422
REMARK  177  A    between atoms: _422  and  _423
REMARK  178  A    between atoms: _423  and  _424
REMARK  179  A    between atoms: _426  and  _428
REMARK  180  A    between atoms: _428  and  _429
REMARK  181  A    between atoms: _428  and  _431
REMARK  182  A    between atoms: _431  and  _432
REMARK  183  A    between atoms: _432  and  _433
REMARK  184  A    between atoms: _436  and  _438
REMARK  185  A    between atoms: _438  and  _439
REMARK  186  A    between atoms: _438  and  _441
REMARK  187  A    between atoms: _441  and  _442
REMARK  188  A    between atoms: _444  and  _446
REMARK  189  A    between atoms: _446  and  _447
REMARK  190  A    between atoms: _446  and  _449
REMARK  191  A    between atoms: _449  and  _450
REMARK  192  A    between atoms: _453  and  _455
REMARK  193  A    between atoms: _455  and  _456
REMARK  194  A    between atoms: _455  and  _458
REMARK  195  A    between atoms: _458  and  _459
REMARK  196  A    between atoms: _461  and  _463
REMARK  197  A    between atoms: _463  and  _464
REMARK  198  A    between atoms: _463  and  _466
REMARK  199  A    between atoms: _466  and  _467
REMARK  200  A    between atoms: _470  and  _472
REMARK  201  A    between atoms: _472  and  _473
REMARK  202  A    between atoms: _472  and  _475
REMARK  203  A    between atoms: _475  and  _476
REMARK  204  A    between atoms: _479  and  _481
REMARK  205  A    between atoms: _481  and  _482
REMARK  206  A    between atoms: _481  and  _484
REMARK  207  A    between atoms: _484  and  _485
REMARK  208  A    between atoms: _485  and  _486
REMARK  209  A    between atoms: _486  and  _487
REMARK  210  A    between atoms: _487  and  _488
REMARK  211  A    between atoms: _492  and  _494
REMARK  212  A    between atoms: _494  and  _495
REMARK  213  A    between atoms: _497  and  _499
REMARK  214  A    between atoms: _499  and  _500
REMARK  215  A    between atoms: _499  and  _502
REMARK  216  A    between atoms: _502  and  _503
REMARK  217  A    between atoms: _508  and  _509
REMARK  218  A    between atoms: _511  and  _513
REMARK  219  A    between atoms: _513  and  _514
REMARK  220  A    between atoms: _516  and  _518
REMARK  221  A    between atoms: _518  and  _519
REMARK  222  A    between atoms: _518  and  _521
REMARK  223  A    between atoms: _521  and  _522
REMARK                            x       y       z     vdW  Elec       q    Type
REMARK                         _______ _______ _______ _____ _____    ______ ____
ROOT
ATOM      1  O   HOH     1      52.982  54.391   3.992  0.00  0.00    +0.000 OA
ENDROOT
TORSDOF 0
REMARK  Name = ../refined-set-2016/3s2v/3s2v_pocket.pdb
REMARK  223 active torsions:
REMARK  status: ('A' for Active; 'I' for Inactive)
REMARK    1  A    between atoms: _1  and  _3
REMARK    2  A    between atoms: _3  and  _4
REMARK    3  A    between atoms: _3  and  _6
REMARK    4  A    between atoms: _6  and  _7
REMARK    5  A    between atoms: _10  and  _12
REMARK    6  A    between atoms: _12  and  _13
REMARK    7  A    between atoms: _12  and  _15
REMARK    8  A    between atoms: _15  and  _16
REMARK    9  A    between atoms: _19  and  _21
REMARK   10  A    between atoms: _21  and  _22
REMARK   11  A    between atoms: _21  and  _24
REMARK   12  A    between atoms: _24  and  _25
REMARK   13  A    between atoms: _25  and  _26
REMARK   14  A    between atoms: _29  and  _31
REMARK   15  A    between atoms: _31  and  _32
REMARK   16  A    between atoms: _31  and  _34
REMARK   17  A    between atoms: _34  and  _35
REMARK   18  A    between atoms: _35  and  _36
REMARK   19  A    between atoms: _40  and  _41
REMARK   20  A    between atoms: _46  and  _48
REMARK   21  A    between atoms: _48  and  _49
REMARK   22  A    between atoms: _48  and  _51
REMARK   23  A    between atoms: _51  and  _52
REMARK   24  A    between atoms: _57  and  _58
REMARK   25  A    between atoms: _60  and  _62
REMARK   26  A    between atoms: _62  and  _63
REMARK   27  A    between atoms: _62  and  _65
REMARK   28  A    between atoms: _68  and  _70
REMARK   29  A    between atoms: _70  and  _71
REMARK   30  A    between atoms: _70  and  _73
REMARK   31  A    between atoms: _73  and  _74
REMARK   32  A    between atoms: _74  and  _75
REMARK   33  A    between atoms: _75  and  _76
REMARK   34  A    between atoms: _76  and  _77
REMARK   35  A    between atoms: _81  and  _83
REMARK   36  A    between atoms: _83  and  _84
REMARK   37  A    between atoms: _83  and  _86
REMARK   38  A    between atoms: _86  and  _87
REMARK   39  A    between atoms: _92  and  _93
REMARK   40  A    between atoms: _95  and  _97
REMARK   41  A    between atoms: _97  and  _98
REMARK   42  A    between atoms: _100  and  _102
REMARK   43  A    between atoms: _102  and  _103
REMARK   44  A    between atoms: _106  and  _108
REMARK   45  A    between atoms: _108  and  _109
REMARK   46  A    between atoms: _108  and  _111
REMARK   47  A    between atoms: _111  and  _112
REMARK   48  A    between atoms: _112  and  _113
REMARK   49  A    between atoms: _115  and  _117
REMARK   50  A    between atoms: _117  and  _118
REMARK   51  A    between atoms: _117  and  _120
REMARK   52  A    between atoms: _123  and  _125
REMARK   53  A    between atoms: _125  and  _126
REMARK   54  A    between atoms: _130  and  _131
REMARK   55  A    between atoms: _136  and  _138
REMARK   56  A    between atoms: _138  and  _139
REMARK   57  A    between atoms: _138  and  _141
REMARK   58  A    between atoms: _141  and  _142
REMARK   59  A    between atoms: _145  and  _147
REMARK   60  A    between atoms: _147  and  _148
REMARK   61  A    between atoms: _147  and  _150
REMARK   62  A    between atoms: _150  and  _151
REMARK   63  A    between atoms: _154  and  _156
REMARK   64  A    between atoms: _156  and  _157
REMARK   65  A    between atoms: _156  and  _159
REMARK   66  A    between atoms: _159  and  _160
REMARK   67  A    between atoms: _163  and  _165
REMARK   68  A    between atoms: _165  and  _166
REMARK   69  A    between atoms: _165  and  _168
REMARK   70  A    between atoms: _168  and  _169
REMARK   71  A    between atoms: _172  and  _174
REMARK   72  A    between atoms: _174  and  _175
REMARK   73  A    between atoms: _174  and  _177
REMARK   74  A    between atoms: _177  and  _178
REMARK   75  A    between atoms: _178  and  _179
REMARK   76  A    between atoms: _179  and  _180
REMARK   77  A    between atoms: _189  and  _191
REMARK   78  A    between atoms: _191  and  _192
REMARK   79  A    between atoms: _191  and  _194
REMARK   80  A    between atoms: _194  and  _195
REMARK   81  A    between atoms: _201  and  _203
REMARK   82  A    between atoms: _203  and  _204
REMARK   83  A    between atoms: _203  and  _206
REMARK   84  A    between atoms: _206  and  _207
REMARK   85  A    between atoms: _207  and  _208
REMARK   86  A    between atoms: _210  and  _212
REMARK   87  A    between atoms: _212  and  _213
REMARK   88  A    between atoms: _212  and  _215
REMARK   89  A    between atoms: _215  and  _216
REMARK   90  A    between atoms: _219  and  _221
REMARK   91  A    between atoms: _221  and  _222
REMARK   92  A    between atoms: _224  and  _226
REMARK   93  A    between atoms: _226  and  _227
REMARK   94  A    between atoms: _226  and  _229
REMARK   95  A    between atoms: _229  and  _230
REMARK   96  A    between atoms: _233  and  _235
REMARK   97  A    between atoms: _235  and  _236
REMARK   98  A    between atoms: _235  and  _238
REMARK   99  A    between atoms: _238  and  _239
REMARK  100  A    between atoms: _241  and  _243
REMARK  101  A    between atoms: _243  and  _244
REMARK  102  A    between atoms: _246  and  _248
REMARK  103  A    between atoms: _248  and  _249
REMARK  104  A    between atoms: _252  and  _254
REMARK  105  A    between atoms: _254  and  _255
REMARK  106  A    between atoms: _254  and  _257
REMARK  107  A    between atoms: _260  and  _262
REMARK  108  A    between atoms: _262  and  _263
REMARK  109  A    between atoms: _262  and  _265
REMARK  110  A    between atoms: _265  and  _266
REMARK  111  A    between atoms: _266  and  _267
REMARK  112  A    between atoms: _267  and  _268
REMARK  113  A    between atoms: _277  and  _279
REMARK  114  A    between atoms: _279  and  _280
REMARK  115  A    between atoms: _279  and  _282
REMARK  116  A    between atoms: _282  and  _283
REMARK  117  A    between atoms: _286  and  _288
REMARK  118  A    between atoms: _288  and  _289
REMARK  119  A    between atoms: _291  and  _293
REMARK  120  A    between atoms: _293  and  _294
REMARK  121  A    between atoms: _293  and  _296
REMARK  122  A    between atoms: _296  and  _297
REMARK  123  A    between atoms: _299  and  _301
REMARK  124  A    between atoms: _301  and  _302
REMARK  125  A    between atoms: _301  and  _304
REMARK  126  A    between atoms: _304  and  _305
REMARK  127  A    between atoms: _308  and  _310
REMARK  128  A    between atoms: _310  and  _311
REMARK  129  A    between atoms: _310  and  _313
REMARK  130  A    between atoms: _313  and  _314
REMARK  131  A    between atoms: _314  and  _315
REMARK  132  A    between atoms: _317  and  _319
REMARK  133  A    between atoms: _319  and  _320
REMARK  134  A    between atoms: _319  and  _322
REMARK  135  A    between atoms: _322  and  _323
REMARK  136  A    between atoms: _326  and  _328
REMARK  137  A    between atoms: _328  and  _329
REMARK  138  A    between atoms: _328  and  _331
REMARK  139  A    between atoms: _331  and  _332
REMARK  140  A    between atoms: _338  and  _340
REMARK  141  A    between atoms: _340  and  _341
REMARK  142  A    between atoms: _340  and  _343
REMARK  143  A    between atoms: _343  and  _344
REMARK  144  A    between atoms: _350  and  _352
REMARK  145  A    between atoms: _352  and  _353
REMARK  146  A    between atoms: _352  and  _355
REMARK  147  A    between atoms: _358  and  _360
REMARK  148  A    between atoms: _360  and  _361
REMARK  149  A    between atoms: _360  and  _363
REMARK  150  A    between atoms: _363  and  _364
REMARK  151  A    between atoms: _364  and  _365
REMARK  152  A    between atoms: _365  and  _366
REMARK  153  A    between atoms: _366  and  _367
REMARK  154  A    between atoms: _371  and  _373
REMARK  155  A    between atoms: _373  and  _374
REMARK  156  A    between atoms: _373  and  _376
REMARK  157  A    between atoms: _376  and  _377
REMARK  158  A    between atoms: _382  and  _384
REMARK  159  A    between atoms: _384  and  _385
REMARK  160  A    between atoms: _384  and  _387
REMARK  161  A    between atoms: _387  and  _388
REMARK  162  A    between atoms: _390  and  _392
REMARK  163  A    between atoms: _392  and  _393
REMARK  164  A    between atoms: _392  and  _395
REMARK  165  A    between atoms: _395  and  _396
REMARK  166  A    between atoms: _399  and  _401
REMARK  167  A    between atoms: _401  and  _402
REMARK  168  A    between atoms: _401  and  _404
REMARK  169  A    between atoms: _404  and  _405
REMARK  170  A    between atoms: _408  and  _410
REMARK  171  A    between atoms: _410  and  _411
REMARK  172  A    between atoms: _410  and  _413
REMARK  173  A    between atoms: _413  and  _414
REMARK  174  A    between atoms: _417  and  _419
REMARK  175  A    between atoms: _419  and  _420
REMARK  176  A    between atoms: _419  and  _422
REMARK  177  A    between atoms: _422  and  _423
REMARK  178  A    between atoms: _423  and  _424
REMARK  179  A    between atoms: _426  and  _428
REMARK  180  A    between atoms: _428  and  _429
REMARK  181  A    between atoms: _428  and  _431
REMARK  182  A    between atoms: _431  and  _432
REMARK  183  A    between atoms: _432  and  _433
REMARK  184  A    between atoms: _436  and  _438
REMARK  185  A    between atoms: _438  and  _439
REMARK  186  A    between atoms: _438  and  _441
REMARK  187  A    between atoms: _441  and  _442
REMARK  188  A    between atoms: _444  and  _446
REMARK  189  A    between atoms: _446  and  _447
REMARK  190  A    between atoms: _446  and  _449
REMARK  191  A    between atoms: _449  and  _450
REMARK  192  A    between atoms: _453  and  _455
REMARK  193  A    between atoms: _455  and  _456
REMARK  194  A    between atoms: _455  and  _458
REMARK  195  A    between atoms: _458  and  _459
REMARK  196  A    between atoms: _461  and  _463
REMARK  197  A    between atoms: _463  and  _464
REMARK  198  A    between atoms: _463  and  _466
REMARK  199  A    between atoms: _466  and  _467
REMARK  200  A    between atoms: _470  and  _472
REMARK  201  A    between atoms: _472  and  _473
REMARK  202  A    between atoms: _472  and  _475
REMARK  203  A    between atoms: _475  and  _476
REMARK  204  A    between atoms: _479  and  _481
REMARK  205  A    between atoms: _481  and  _482
REMARK  206  A    between atoms: _481  and  _484
REMARK  207  A    between atoms: _484  and  _485
REMARK  208  A    between atoms: _485  and  _486
REMARK  209  A    between atoms: _486  and  _487
REMARK  210  A    between atoms: _487  and  _488
REMARK  211  A    between atoms: _492  and  _494
REMARK  212  A    between atoms: _494  and  _495
REMARK  213  A    between atoms: _497  and  _499
REMARK  214  A    between atoms: _499  and  _500
REMARK  215  A    between atoms: _499  and  _502
REMARK  216  A    between atoms: _502  and  _503
REMARK  217  A    between atoms: _508  and  _509
REMARK  218  A    between atoms: _511  and  _513
REMARK  219  A    between atoms: _513  and  _514
REMARK  220  A    between atoms: _516  and  _518
REMARK  221  A    between atoms: _518  and  _519
REMARK  222  A    between atoms: _518  and  _521
REMARK  223  A    between atoms: _521  and  _522
REMARK                            x       y       z     vdW  Elec       q    Type
REMARK                         _______ _______ _______ _____ _____    ______ ____
ROOT
ATOM      1  O   HOH     1      48.953  59.449  12.559  0.00  0.00    +0.000 OA
ENDROOT
TORSDOF 0
REMARK  Name = ../refined-set-2016/3s2v/3s2v_pocket.pdb
REMARK  223 active torsions:
REMARK  status: ('A' for Active; 'I' for Inactive)
REMARK    1  A    between atoms: _1  and  _3
REMARK    2  A    between atoms: _3  and  _4
REMARK    3  A    between atoms: _3  and  _6
REMARK    4  A    between atoms: _6  and  _7
REMARK    5  A    between atoms: _10  and  _12
REMARK    6  A    between atoms: _12  and  _13
REMARK    7  A    between atoms: _12  and  _15
REMARK    8  A    between atoms: _15  and  _16
REMARK    9  A    between atoms: _19  and  _21
REMARK   10  A    between atoms: _21  and  _22
REMARK   11  A    between atoms: _21  and  _24
REMARK   12  A    between atoms: _24  and  _25
REMARK   13  A    between atoms: _25  and  _26
REMARK   14  A    between atoms: _29  and  _31
REMARK   15  A    between atoms: _31  and  _32
REMARK   16  A    between atoms: _31  and  _34
REMARK   17  A    between atoms: _34  and  _35
REMARK   18  A    between atoms: _35  and  _36
REMARK   19  A    between atoms: _40  and  _41
REMARK   20  A    between atoms: _46  and  _48
REMARK   21  A    between atoms: _48  and  _49
REMARK   22  A    between atoms: _48  and  _51
REMARK   23  A    between atoms: _51  and  _52
REMARK   24  A    between atoms: _57  and  _58
REMARK   25  A    between atoms: _60  and  _62
REMARK   26  A    between atoms: _62  and  _63
REMARK   27  A    between atoms: _62  and  _65
REMARK   28  A    between atoms: _68  and  _70
REMARK   29  A    between atoms: _70  and  _71
REMARK   30  A    between atoms: _70  and  _73
REMARK   31  A    between atoms: _73  and  _74
REMARK   32  A    between atoms: _74  and  _75
REMARK   33  A    between atoms: _75  and  _76
REMARK   34  A    between atoms: _76  and  _77
REMARK   35  A    between atoms: _81  and  _83
REMARK   36  A    between atoms: _83  and  _84
REMARK   37  A    between atoms: _83  and  _86
REMARK   38  A    between atoms: _86  and  _87
REMARK   39  A    between atoms: _92  and  _93
REMARK   40  A    between atoms: _95  and  _97
REMARK   41  A    between atoms: _97  and  _98
REMARK   42  A    between atoms: _100  and  _102
REMARK   43  A    between atoms: _102  and  _103
REMARK   44  A    between atoms: _106  and  _108
REMARK   45  A    between atoms: _108  and  _109
REMARK   46  A    between atoms: _108  and  _111
REMARK   47  A    between atoms: _111  and  _112
REMARK   48  A    between atoms: _112  and  _113
REMARK   49  A    between atoms: _115  and  _117
REMARK   50  A    between atoms: _117  and  _118
REMARK   51  A    between atoms: _117  and  _120
REMARK   52  A    between atoms: _123  and  _125
REMARK   53  A    between atoms: _125  and  _126
REMARK   54  A    between atoms: _130  and  _131
REMARK   55  A    between atoms: _136  and  _138
REMARK   56  A    between atoms: _138  and  _139
REMARK   57  A    between atoms: _138  and  _141
REMARK   58  A    between atoms: _141  and  _142
REMARK   59  A    between atoms: _145  and  _147
REMARK   60  A    between atoms: _147  and  _148
REMARK   61  A    between atoms: _147  and  _150
REMARK   62  A    between atoms: _150  and  _151
REMARK   63  A    between atoms: _154  and  _156
REMARK   64  A    between atoms: _156  and  _157
REMARK   65  A    between atoms: _156  and  _159
REMARK   66  A    between atoms: _159  and  _160
REMARK   67  A    between atoms: _163  and  _165
REMARK   68  A    between atoms: _165  and  _166
REMARK   69  A    between atoms: _165  and  _168
REMARK   70  A    between atoms: _168  and  _169
REMARK   71  A    between atoms: _172  and  _174
REMARK   72  A    between atoms: _174  and  _175
REMARK   73  A    between atoms: _174  and  _177
REMARK   74  A    between atoms: _177  and  _178
REMARK   75  A    between atoms: _178  and  _179
REMARK   76  A    between atoms: _179  and  _180
REMARK   77  A    between atoms: _189  and  _191
REMARK   78  A    between atoms: _191  and  _192
REMARK   79  A    between atoms: _191  and  _194
REMARK   80  A    between atoms: _194  and  _195
REMARK   81  A    between atoms: _201  and  _203
REMARK   82  A    between atoms: _203  and  _204
REMARK   83  A    between atoms: _203  and  _206
REMARK   84  A    between atoms: _206  and  _207
REMARK   85  A    between atoms: _207  and  _208
REMARK   86  A    between atoms: _210  and  _212
REMARK   87  A    between atoms: _212  and  _213
REMARK   88  A    between atoms: _212  and  _215
REMARK   89  A    between atoms: _215  and  _216
REMARK   90  A    between atoms: _219  and  _221
REMARK   91  A    between atoms: _221  and  _222
REMARK   92  A    between atoms: _224  and  _226
REMARK   93  A    between atoms: _226  and  _227
REMARK   94  A    between atoms: _226  and  _229
REMARK   95  A    between atoms: _229  and  _230
REMARK   96  A    between atoms: _233  and  _235
REMARK   97  A    between atoms: _235  and  _236
REMARK   98  A    between atoms: _235  and  _238
REMARK   99  A    between atoms: _238  and  _239
REMARK  100  A    between atoms: _241  and  _243
REMARK  101  A    between atoms: _243  and  _244
REMARK  102  A    between atoms: _246  and  _248
REMARK  103  A    between atoms: _248  and  _249
REMARK  104  A    between atoms: _252  and  _254
REMARK  105  A    between atoms: _254  and  _255
REMARK  106  A    between atoms: _254  and  _257
REMARK  107  A    between atoms: _260  and  _262
REMARK  108  A    between atoms: _262  and  _263
REMARK  109  A    between atoms: _262  and  _265
REMARK  110  A    between atoms: _265  and  _266
REMARK  111  A    between atoms: _266  and  _267
REMARK  112  A    between atoms: _267  and  _268
REMARK  113  A    between atoms: _277  and  _279
REMARK  114  A    between atoms: _279  and  _280
REMARK  115  A    between atoms: _279  and  _282
REMARK  116  A    between atoms: _282  and  _283
REMARK  117  A    between atoms: _286  and  _288
REMARK  118  A    between atoms: _288  and  _289
REMARK  119  A    between atoms: _291  and  _293
REMARK  120  A    between atoms: _293  and  _294
REMARK  121  A    between atoms: _293  and  _296
REMARK  122  A    between atoms: _296  and  _297
REMARK  123  A    between atoms: _299  and  _301
REMARK  124  A    between atoms: _301  and  _302
REMARK  125  A    between atoms: _301  and  _304
REMARK  126  A    between atoms: _304  and  _305
REMARK  127  A    between atoms: _308  and  _310
REMARK  128  A    between atoms: _310  and  _311
REMARK  129  A    between atoms: _310  and  _313
REMARK  130  A    between atoms: _313  and  _314
REMARK  131  A    between atoms: _314  and  _315
REMARK  132  A    between atoms: _317  and  _319
REMARK  133  A    between atoms: _319  and  _320
REMARK  134  A    between atoms: _319  and  _322
REMARK  135  A    between atoms: _322  and  _323
REMARK  136  A    between atoms: _326  and  _328
REMARK  137  A    between atoms: _328  and  _329
REMARK  138  A    between atoms: _328  and  _331
REMARK  139  A    between atoms: _331  and  _332
REMARK  140  A    between atoms: _338  and  _340
REMARK  141  A    between atoms: _340  and  _341
REMARK  142  A    between atoms: _340  and  _343
REMARK  143  A    between atoms: _343  and  _344
REMARK  144  A    between atoms: _350  and  _352
REMARK  145  A    between atoms: _352  and  _353
REMARK  146  A    between atoms: _352  and  _355
REMARK  147  A    between atoms: _358  and  _360
REMARK  148  A    between atoms: _360  and  _361
REMARK  149  A    between atoms: _360  and  _363
REMARK  150  A    between atoms: _363  and  _364
REMARK  151  A    between atoms: _364  and  _365
REMARK  152  A    between atoms: _365  and  _366
REMARK  153  A    between atoms: _366  and  _367
REMARK  154  A    between atoms: _371  and  _373
REMARK  155  A    between atoms: _373  and  _374
REMARK  156  A    between atoms: _373  and  _376
REMARK  157  A    between atoms: _376  and  _377
REMARK  158  A    between atoms: _382  and  _384
REMARK  159  A    between atoms: _384  and  _385
REMARK  160  A    between atoms: _384  and  _387
REMARK  161  A    between atoms: _387  and  _388
REMARK  162  A    between atoms: _390  and  _392
REMARK  163  A    between atoms: _392  and  _393
REMARK  164  A    between atoms: _392  and  _395
REMARK  165  A    between atoms: _395  and  _396
REMARK  166  A    between atoms: _399  and  _401
REMARK  167  A    between atoms: _401  and  _402
REMARK  168  A    between atoms: _401  and  _404
REMARK  169  A    between atoms: _404  and  _405
REMARK  170  A    between atoms: _408  and  _410
REMARK  171  A    between atoms: _410  and  _411
REMARK  172  A    between atoms: _410  and  _413
REMARK  173  A    between atoms: _413  and  _414
REMARK  174  A    between atoms: _417  and  _419
REMARK  175  A    between atoms: _419  and  _420
REMARK  176  A    between atoms: _419  and  _422
REMARK  177  A    between atoms: _422  and  _423
REMARK  178  A    between atoms: _423  and  _424
REMARK  179  A    between atoms: _426  and  _428
REMARK  180  A    between atoms: _428  and  _429
REMARK  181  A    between atoms: _428  and  _431
REMARK  182  A    between atoms: _431  and  _432
REMARK  183  A    between atoms: _432  and  _433
REMARK  184  A    between atoms: _436  and  _438
REMARK  185  A    between atoms: _438  and  _439
REMARK  186  A    between atoms: _438  and  _441
REMARK  187  A    between atoms: _441  and  _442
REMARK  188  A    between atoms: _444  and  _446
REMARK  189  A    between atoms: _446  and  _447
REMARK  190  A    between atoms: _446  and  _449
REMARK  191  A    between atoms: _449  and  _450
REMARK  192  A    between atoms: _453  and  _455
REMARK  193  A    between atoms: _455  and  _456
REMARK  194  A    between atoms: _455  and  _458
REMARK  195  A    between atoms: _458  and  _459
REMARK  196  A    between atoms: _461  and  _463
REMARK  197  A    between atoms: _463  and  _464
REMARK  198  A    between atoms: _463  and  _466
REMARK  199  A    between atoms: _466  and  _467
REMARK  200  A    between atoms: _470  and  _472
REMARK  201  A    between atoms: _472  and  _473
REMARK  202  A    between atoms: _472  and  _475
REMARK  203  A    between atoms: _475  and  _476
REMARK  204  A    between atoms: _479  and  _481
REMARK  205  A    between atoms: _481  and  _482
REMARK  206  A    between atoms: _481  and  _484
REMARK  207  A    between atoms: _484  and  _485
REMARK  208  A    between atoms: _485  and  _486
REMARK  209  A    between atoms: _486  and  _487
REMARK  210  A    between atoms: _487  and  _488
REMARK  211  A    between atoms: _492  and  _494
REMARK  212  A    between atoms: _494  and  _495
REMARK  213  A    between atoms: _497  and  _499
REMARK  214  A    between atoms: _499  and  _500
REMARK  215  A    between atoms: _499  and  _502
REMARK  216  A    between atoms: _502  and  _503
REMARK  217  A    between atoms: _508  and  _509
REMARK  218  A    between atoms: _511  and  _513
REMARK  219  A    between atoms: _513  and  _514
REMARK  220  A    between atoms: _516  and  _518
REMARK  221  A    between atoms: _518  and  _519
REMARK  222  A    between atoms: _518  and  _521
REMARK  223  A    between atoms: _521  and  _522
REMARK                            x       y       z     vdW  Elec       q    Type
REMARK                         _______ _______ _______ _____ _____    ______ ____
ROOT
ATOM      1  O   HOH     1      42.060  53.386  -0.462  0.00  0.00    +0.000 OA
ENDROOT
TORSDOF 0
REMARK  Name = ../refined-set-2016/3s2v/3s2v_pocket.pdb
REMARK  223 active torsions:
REMARK  status: ('A' for Active; 'I' for Inactive)
REMARK    1  A    between atoms: _1  and  _3
REMARK    2  A    between atoms: _3  and  _4
REMARK    3  A    between atoms: _3  and  _6
REMARK    4  A    between atoms: _6  and  _7
REMARK    5  A    between atoms: _10  and  _12
REMARK    6  A    between atoms: _12  and  _13
REMARK    7  A    between atoms: _12  and  _15
REMARK    8  A    between atoms: _15  and  _16
REMARK    9  A    between atoms: _19  and  _21
REMARK   10  A    between atoms: _21  and  _22
REMARK   11  A    between atoms: _21  and  _24
REMARK   12  A    between atoms: _24  and  _25
REMARK   13  A    between atoms: _25  and  _26
REMARK   14  A    between atoms: _29  and  _31
REMARK   15  A    between atoms: _31  and  _32
REMARK   16  A    between atoms: _31  and  _34
REMARK   17  A    between atoms: _34  and  _35
REMARK   18  A    between atoms: _35  and  _36
REMARK   19  A    between atoms: _40  and  _41
REMARK   20  A    between atoms: _46  and  _48
REMARK   21  A    between atoms: _48  and  _49
REMARK   22  A    between atoms: _48  and  _51
REMARK   23  A    between atoms: _51  and  _52
REMARK   24  A    between atoms: _57  and  _58
REMARK   25  A    between atoms: _60  and  _62
REMARK   26  A    between atoms: _62  and  _63
REMARK   27  A    between atoms: _62  and  _65
REMARK   28  A    between atoms: _68  and  _70
REMARK   29  A    between atoms: _70  and  _71
REMARK   30  A    between atoms: _70  and  _73
REMARK   31  A    between atoms: _73  and  _74
REMARK   32  A    between atoms: _74  and  _75
REMARK   33  A    between atoms: _75  and  _76
REMARK   34  A    between atoms: _76  and  _77
REMARK   35  A    between atoms: _81  and  _83
REMARK   36  A    between atoms: _83  and  _84
REMARK   37  A    between atoms: _83  and  _86
REMARK   38  A    between atoms: _86  and  _87
REMARK   39  A    between atoms: _92  and  _93
REMARK   40  A    between atoms: _95  and  _97
REMARK   41  A    between atoms: _97  and  _98
REMARK   42  A    between atoms: _100  and  _102
REMARK   43  A    between atoms: _102  and  _103
REMARK   44  A    between atoms: _106  and  _108
REMARK   45  A    between atoms: _108  and  _109
REMARK   46  A    between atoms: _108  and  _111
REMARK   47  A    between atoms: _111  and  _112
REMARK   48  A    between atoms: _112  and  _113
REMARK   49  A    between atoms: _115  and  _117
REMARK   50  A    between atoms: _117  and  _118
REMARK   51  A    between atoms: _117  and  _120
REMARK   52  A    between atoms: _123  and  _125
REMARK   53  A    between atoms: _125  and  _126
REMARK   54  A    between atoms: _130  and  _131
REMARK   55  A    between atoms: _136  and  _138
REMARK   56  A    between atoms: _138  and  _139
REMARK   57  A    between atoms: _138  and  _141
REMARK   58  A    between atoms: _141  and  _142
REMARK   59  A    between atoms: _145  and  _147
REMARK   60  A    between atoms: _147  and  _148
REMARK   61  A    between atoms: _147  and  _150
REMARK   62  A    between atoms: _150  and  _151
REMARK   63  A    between atoms: _154  and  _156
REMARK   64  A    between atoms: _156  and  _157
REMARK   65  A    between atoms: _156  and  _159
REMARK   66  A    between atoms: _159  and  _160
REMARK   67  A    between atoms: _163  and  _165
REMARK   68  A    between atoms: _165  and  _166
REMARK   69  A    between atoms: _165  and  _168
REMARK   70  A    between atoms: _168  and  _169
REMARK   71  A    between atoms: _172  and  _174
REMARK   72  A    between atoms: _174  and  _175
REMARK   73  A    between atoms: _174  and  _177
REMARK   74  A    between atoms: _177  and  _178
REMARK   75  A    between atoms: _178  and  _179
REMARK   76  A    between atoms: _179  and  _180
REMARK   77  A    between atoms: _189  and  _191
REMARK   78  A    between atoms: _191  and  _192
REMARK   79  A    between atoms: _191  and  _194
REMARK   80  A    between atoms: _194  and  _195
REMARK   81  A    between atoms: _201  and  _203
REMARK   82  A    between atoms: _203  and  _204
REMARK   83  A    between atoms: _203  and  _206
REMARK   84  A    between atoms: _206  and  _207
REMARK   85  A    between atoms: _207  and  _208
REMARK   86  A    between atoms: _210  and  _212
REMARK   87  A    between atoms: _212  and  _213
REMARK   88  A    between atoms: _212  and  _215
REMARK   89  A    between atoms: _215  and  _216
REMARK   90  A    between atoms: _219  and  _221
REMARK   91  A    between atoms: _221  and  _222
REMARK   92  A    between atoms: _224  and  _226
REMARK   93  A    between atoms: _226  and  _227
REMARK   94  A    between atoms: _226  and  _229
REMARK   95  A    between atoms: _229  and  _230
REMARK   96  A    between atoms: _233  and  _235
REMARK   97  A    between atoms: _235  and  _236
REMARK   98  A    between atoms: _235  and  _238
REMARK   99  A    between atoms: _238  and  _239
REMARK  100  A    between atoms: _241  and  _243
REMARK  101  A    between atoms: _243  and  _244
REMARK  102  A    between atoms: _246  and  _248
REMARK  103  A    between atoms: _248  and  _249
REMARK  104  A    between atoms: _252  and  _254
REMARK  105  A    between atoms: _254  and  _255
REMARK  106  A    between atoms: _254  and  _257
REMARK  107  A    between atoms: _260  and  _262
REMARK  108  A    between atoms: _262  and  _263
REMARK  109  A    between atoms: _262  and  _265
REMARK  110  A    between atoms: _265  and  _266
REMARK  111  A    between atoms: _266  and  _267
REMARK  112  A    between atoms: _267  and  _268
REMARK  113  A    between atoms: _277  and  _279
REMARK  114  A    between atoms: _279  and  _280
REMARK  115  A    between atoms: _279  and  _282
REMARK  116  A    between atoms: _282  and  _283
REMARK  117  A    between atoms: _286  and  _288
REMARK  118  A    between atoms: _288  and  _289
REMARK  119  A    between atoms: _291  and  _293
REMARK  120  A    between atoms: _293  and  _294
REMARK  121  A    between atoms: _293  and  _296
REMARK  122  A    between atoms: _296  and  _297
REMARK  123  A    between atoms: _299  and  _301
REMARK  124  A    between atoms: _301  and  _302
REMARK  125  A    between atoms: _301  and  _304
REMARK  126  A    between atoms: _304  and  _305
REMARK  127  A    between atoms: _308  and  _310
REMARK  128  A    between atoms: _310  and  _311
REMARK  129  A    between atoms: _310  and  _313
REMARK  130  A    between atoms: _313  and  _314
REMARK  131  A    between atoms: _314  and  _315
REMARK  132  A    between atoms: _317  and  _319
REMARK  133  A    between atoms: _319  and  _320
REMARK  134  A    between atoms: _319  and  _322
REMARK  135  A    between atoms: _322  and  _323
REMARK  136  A    between atoms: _326  and  _328
REMARK  137  A    between atoms: _328  and  _329
REMARK  138  A    between atoms: _328  and  _331
REMARK  139  A    between atoms: _331  and  _332
REMARK  140  A    between atoms: _338  and  _340
REMARK  141  A    between atoms: _340  and  _341
REMARK  142  A    between atoms: _340  and  _343
REMARK  143  A    between atoms: _343  and  _344
REMARK  144  A    between atoms: _350  and  _352
REMARK  145  A    between atoms: _352  and  _353
REMARK  146  A    between atoms: _352  and  _355
REMARK  147  A    between atoms: _358  and  _360
REMARK  148  A    between atoms: _360  and  _361
REMARK  149  A    between atoms: _360  and  _363
REMARK  150  A    between atoms: _363  and  _364
REMARK  151  A    between atoms: _364  and  _365
REMARK  152  A    between atoms: _365  and  _366
REMARK  153  A    between atoms: _366  and  _367
REMARK  154  A    between atoms: _371  and  _373
REMARK  155  A    between atoms: _373  and  _374
REMARK  156  A    between atoms: _373  and  _376
REMARK  157  A    between atoms: _376  and  _377
REMARK  158  A    between atoms: _382  and  _384
REMARK  159  A    between atoms: _384  and  _385
REMARK  160  A    between atoms: _384  and  _387
REMARK  161  A    between atoms: _387  and  _388
REMARK  162  A    between atoms: _390  and  _392
REMARK  163  A    between atoms: _392  and  _393
REMARK  164  A    between atoms: _392  and  _395
REMARK  165  A    between atoms: _395  and  _396
REMARK  166  A    between atoms: _399  and  _401
REMARK  167  A    between atoms: _401  and  _402
REMARK  168  A    between atoms: _401  and  _404
REMARK  169  A    between atoms: _404  and  _405
REMARK  170  A    between atoms: _408  and  _410
REMARK  171  A    between atoms: _410  and  _411
REMARK  172  A    between atoms: _410  and  _413
REMARK  173  A    between atoms: _413  and  _414
REMARK  174  A    between atoms: _417  and  _419
REMARK  175  A    between atoms: _419  and  _420
REMARK  176  A    between atoms: _419  and  _422
REMARK  177  A    between atoms: _422  and  _423
REMARK  178  A    between atoms: _423  and  _424
REMARK  179  A    between atoms: _426  and  _428
REMARK  180  A    between atoms: _428  and  _429
REMARK  181  A    between atoms: _428  and  _431
REMARK  182  A    between atoms: _431  and  _432
REMARK  183  A    between atoms: _432  and  _433
REMARK  184  A    between atoms: _436  and  _438
REMARK  185  A    between atoms: _438  and  _439
REMARK  186  A    between atoms: _438  and  _441
REMARK  187  A    between atoms: _441  and  _442
REMARK  188  A    between atoms: _444  and  _446
REMARK  189  A    between atoms: _446  and  _447
REMARK  190  A    between atoms: _446  and  _449
REMARK  191  A    between atoms: _449  and  _450
REMARK  192  A    between atoms: _453  and  _455
REMARK  193  A    between atoms: _455  and  _456
REMARK  194  A    between atoms: _455  and  _458
REMARK  195  A    between atoms: _458  and  _459
REMARK  196  A    between atoms: _461  and  _463
REMARK  197  A    between atoms: _463  and  _464
REMARK  198  A    between atoms: _463  and  _466
REMARK  199  A    between atoms: _466  and  _467
REMARK  200  A    between atoms: _470  and  _472
REMARK  201  A    between atoms: _472  and  _473
REMARK  202  A    between atoms: _472  and  _475
REMARK  203  A    between atoms: _475  and  _476
REMARK  204  A    between atoms: _479  and  _481
REMARK  205  A    between atoms: _481  and  _482
REMARK  206  A    between atoms: _481  and  _484
REMARK  207  A    between atoms: _484  and  _485
REMARK  208  A    between atoms: _485  and  _486
REMARK  209  A    between atoms: _486  and  _487
REMARK  210  A    between atoms: _487  and  _488
REMARK  211  A    between atoms: _492  and  _494
REMARK  212  A    between atoms: _494  and  _495
REMARK  213  A    between atoms: _497  and  _499
REMARK  214  A    between atoms: _499  and  _500
REMARK  215  A    between atoms: _499  and  _502
REMARK  216  A    between atoms: _502  and  _503
REMARK  217  A    between atoms: _508  and  _509
REMARK  218  A    between atoms: _511  and  _513
REMARK  219  A    between atoms: _513  and  _514
REMARK  220  A    between atoms: _516  and  _518
REMARK  221  A    between atoms: _518  and  _519
REMARK  222  A    between atoms: _518  and  _521
REMARK  223  A    between atoms: _521  and  _522
REMARK                            x       y       z     vdW  Elec       q    Type
REMARK                         _______ _______ _______ _____ _____    ______ ____
ROOT
ATOM      1  O   HOH     1      43.383  59.772  14.531  0.00  0.00    +0.000 OA
ENDROOT
TORSDOF 0
REMARK  Name = ../refined-set-2016/3s2v/3s2v_pocket.pdb
REMARK  223 active torsions:
REMARK  status: ('A' for Active; 'I' for Inactive)
REMARK    1  A    between atoms: _1  and  _3
REMARK    2  A    between atoms: _3  and  _4
REMARK    3  A    between atoms: _3  and  _6
REMARK    4  A    between atoms: _6  and  _7
REMARK    5  A    between atoms: _10  and  _12
REMARK    6  A    between atoms: _12  and  _13
REMARK    7  A    between atoms: _12  and  _15
REMARK    8  A    between atoms: _15  and  _16
REMARK    9  A    between atoms: _19  and  _21
REMARK   10  A    between atoms: _21  and  _22
REMARK   11  A    between atoms: _21  and  _24
REMARK   12  A    between atoms: _24  and  _25
REMARK   13  A    between atoms: _25  and  _26
REMARK   14  A    between atoms: _29  and  _31
REMARK   15  A    between atoms: _31  and  _32
REMARK   16  A    between atoms: _31  and  _34
REMARK   17  A    between atoms: _34  and  _35
REMARK   18  A    between atoms: _35  and  _36
REMARK   19  A    between atoms: _40  and  _41
REMARK   20  A    between atoms: _46  and  _48
REMARK   21  A    between atoms: _48  and  _49
REMARK   22  A    between atoms: _48  and  _51
REMARK   23  A    between atoms: _51  and  _52
REMARK   24  A    between atoms: _57  and  _58
REMARK   25  A    between atoms: _60  and  _62
REMARK   26  A    between atoms: _62  and  _63
REMARK   27  A    between atoms: _62  and  _65
REMARK   28  A    between atoms: _68  and  _70
REMARK   29  A    between atoms: _70  and  _71
REMARK   30  A    between atoms: _70  and  _73
REMARK   31  A    between atoms: _73  and  _74
REMARK   32  A    between atoms: _74  and  _75
REMARK   33  A    between atoms: _75  and  _76
REMARK   34  A    between atoms: _76  and  _77
REMARK   35  A    between atoms: _81  and  _83
REMARK   36  A    between atoms: _83  and  _84
REMARK   37  A    between atoms: _83  and  _86
REMARK   38  A    between atoms: _86  and  _87
REMARK   39  A    between atoms: _92  and  _93
REMARK   40  A    between atoms: _95  and  _97
REMARK   41  A    between atoms: _97  and  _98
REMARK   42  A    between atoms: _100  and  _102
REMARK   43  A    between atoms: _102  and  _103
REMARK   44  A    between atoms: _106  and  _108
REMARK   45  A    between atoms: _108  and  _109
REMARK   46  A    between atoms: _108  and  _111
REMARK   47  A    between atoms: _111  and  _112
REMARK   48  A    between atoms: _112  and  _113
REMARK   49  A    between atoms: _115  and  _117
REMARK   50  A    between atoms: _117  and  _118
REMARK   51  A    between atoms: _117  and  _120
REMARK   52  A    between atoms: _123  and  _125
REMARK   53  A    between atoms: _125  and  _126
REMARK   54  A    between atoms: _130  and  _131
REMARK   55  A    between atoms: _136  and  _138
REMARK   56  A    between atoms: _138  and  _139
REMARK   57  A    between atoms: _138  and  _141
REMARK   58  A    between atoms: _141  and  _142
REMARK   59  A    between atoms: _145  and  _147
REMARK   60  A    between atoms: _147  and  _148
REMARK   61  A    between atoms: _147  and  _150
REMARK   62  A    between atoms: _150  and  _151
REMARK   63  A    between atoms: _154  and  _156
REMARK   64  A    between atoms: _156  and  _157
REMARK   65  A    between atoms: _156  and  _159
REMARK   66  A    between atoms: _159  and  _160
REMARK   67  A    between atoms: _163  and  _165
REMARK   68  A    between atoms: _165  and  _166
REMARK   69  A    between atoms: _165  and  _168
REMARK   70  A    between atoms: _168  and  _169
REMARK   71  A    between atoms: _172  and  _174
REMARK   72  A    between atoms: _174  and  _175
REMARK   73  A    between atoms: _174  and  _177
REMARK   74  A    between atoms: _177  and  _178
REMARK   75  A    between atoms: _178  and  _179
REMARK   76  A    between atoms: _179  and  _180
REMARK   77  A    between atoms: _189  and  _191
REMARK   78  A    between atoms: _191  and  _192
REMARK   79  A    between atoms: _191  and  _194
REMARK   80  A    between atoms: _194  and  _195
REMARK   81  A    between atoms: _201  and  _203
REMARK   82  A    between atoms: _203  and  _204
REMARK   83  A    between atoms: _203  and  _206
REMARK   84  A    between atoms: _206  and  _207
REMARK   85  A    between atoms: _207  and  _208
REMARK   86  A    between atoms: _210  and  _212
REMARK   87  A    between atoms: _212  and  _213
REMARK   88  A    between atoms: _212  and  _215
REMARK   89  A    between atoms: _215  and  _216
REMARK   90  A    between atoms: _219  and  _221
REMARK   91  A    between atoms: _221  and  _222
REMARK   92  A    between atoms: _224  and  _226
REMARK   93  A    between atoms: _226  and  _227
REMARK   94  A    between atoms: _226  and  _229
REMARK   95  A    between atoms: _229  and  _230
REMARK   96  A    between atoms: _233  and  _235
REMARK   97  A    between atoms: _235  and  _236
REMARK   98  A    between atoms: _235  and  _238
REMARK   99  A    between atoms: _238  and  _239
REMARK  100  A    between atoms: _241  and  _243
REMARK  101  A    between atoms: _243  and  _244
REMARK  102  A    between atoms: _246  and  _248
REMARK  103  A    between atoms: _248  and  _249
REMARK  104  A    between atoms: _252  and  _254
REMARK  105  A    between atoms: _254  and  _255
REMARK  106  A    between atoms: _254  and  _257
REMARK  107  A    between atoms: _260  and  _262
REMARK  108  A    between atoms: _262  and  _263
REMARK  109  A    between atoms: _262  and  _265
REMARK  110  A    between atoms: _265  and  _266
REMARK  111  A    between atoms: _266  and  _267
REMARK  112  A    between atoms: _267  and  _268
REMARK  113  A    between atoms: _277  and  _279
REMARK  114  A    between atoms: _279  and  _280
REMARK  115  A    between atoms: _279  and  _282
REMARK  116  A    between atoms: _282  and  _283
REMARK  117  A    between atoms: _286  and  _288
REMARK  118  A    between atoms: _288  and  _289
REMARK  119  A    between atoms: _291  and  _293
REMARK  120  A    between atoms: _293  and  _294
REMARK  121  A    between atoms: _293  and  _296
REMARK  122  A    between atoms: _296  and  _297
REMARK  123  A    between atoms: _299  and  _301
REMARK  124  A    between atoms: _301  and  _302
REMARK  125  A    between atoms: _301  and  _304
REMARK  126  A    between atoms: _304  and  _305
REMARK  127  A    between atoms: _308  and  _310
REMARK  128  A    between atoms: _310  and  _311
REMARK  129  A    between atoms: _310  and  _313
REMARK  130  A    between atoms: _313  and  _314
REMARK  131  A    between atoms: _314  and  _315
REMARK  132  A    between atoms: _317  and  _319
REMARK  133  A    between atoms: _319  and  _320
REMARK  134  A    between atoms: _319  and  _322
REMARK  135  A    between atoms: _322  and  _323
REMARK  136  A    between atoms: _326  and  _328
REMARK  137  A    between atoms: _328  and  _329
REMARK  138  A    between atoms: _328  and  _331
REMARK  139  A    between atoms: _331  and  _332
REMARK  140  A    between atoms: _338  and  _340
REMARK  141  A    between atoms: _340  and  _341
REMARK  142  A    between atoms: _340  and  _343
REMARK  143  A    between atoms: _343  and  _344
REMARK  144  A    between atoms: _350  and  _352
REMARK  145  A    between atoms: _352  and  _353
REMARK  146  A    between atoms: _352  and  _355
REMARK  147  A    between atoms: _358  and  _360
REMARK  148  A    between atoms: _360  and  _361
REMARK  149  A    between atoms: _360  and  _363
REMARK  150  A    between atoms: _363  and  _364
REMARK  151  A    between atoms: _364  and  _365
REMARK  152  A    between atoms: _365  and  _366
REMARK  153  A    between atoms: _366  and  _367
REMARK  154  A    between atoms: _371  and  _373
REMARK  155  A    between atoms: _373  and  _374
REMARK  156  A    between atoms: _373  and  _376
REMARK  157  A    between atoms: _376  and  _377
REMARK  158  A    between atoms: _382  and  _384
REMARK  159  A    between atoms: _384  and  _385
REMARK  160  A    between atoms: _384  and  _387
REMARK  161  A    between atoms: _387  and  _388
REMARK  162  A    between atoms: _390  and  _392
REMARK  163  A    between atoms: _392  and  _393
REMARK  164  A    between atoms: _392  and  _395
REMARK  165  A    between atoms: _395  and  _396
REMARK  166  A    between atoms: _399  and  _401
REMARK  167  A    between atoms: _401  and  _402
REMARK  168  A    between atoms: _401  and  _404
REMARK  169  A    between atoms: _404  and  _405
REMARK  170  A    between atoms: _408  and  _410
REMARK  171  A    between atoms: _410  and  _411
REMARK  172  A    between atoms: _410  and  _413
REMARK  173  A    between atoms: _413  and  _414
REMARK  174  A    between atoms: _417  and  _419
REMARK  175  A    between atoms: _419  and  _420
REMARK  176  A    between atoms: _419  and  _422
REMARK  177  A    between atoms: _422  and  _423
REMARK  178  A    between atoms: _423  and  _424
REMARK  179  A    between atoms: _426  and  _428
REMARK  180  A    between atoms: _428  and  _429
REMARK  181  A    between atoms: _428  and  _431
REMARK  182  A    between atoms: _431  and  _432
REMARK  183  A    between atoms: _432  and  _433
REMARK  184  A    between atoms: _436  and  _438
REMARK  185  A    between atoms: _438  and  _439
REMARK  186  A    between atoms: _438  and  _441
REMARK  187  A    between atoms: _441  and  _442
REMARK  188  A    between atoms: _444  and  _446
REMARK  189  A    between atoms: _446  and  _447
REMARK  190  A    between atoms: _446  and  _449
REMARK  191  A    between atoms: _449  and  _450
REMARK  192  A    between atoms: _453  and  _455
REMARK  193  A    between atoms: _455  and  _456
REMARK  194  A    between atoms: _455  and  _458
REMARK  195  A    between atoms: _458  and  _459
REMARK  196  A    between atoms: _461  and  _463
REMARK  197  A    between atoms: _463  and  _464
REMARK  198  A    between atoms: _463  and  _466
REMARK  199  A    between atoms: _466  and  _467
REMARK  200  A    between atoms: _470  and  _472
REMARK  201  A    between atoms: _472  and  _473
REMARK  202  A    between atoms: _472  and  _475
REMARK  203  A    between atoms: _475  and  _476
REMARK  204  A    between atoms: _479  and  _481
REMARK  205  A    between atoms: _481  and  _482
REMARK  206  A    between atoms: _481  and  _484
REMARK  207  A    between atoms: _484  and  _485
REMARK  208  A    between atoms: _485  and  _486
REMARK  209  A    between atoms: _486  and  _487
REMARK  210  A    between atoms: _487  and  _488
REMARK  211  A    between atoms: _492  and  _494
REMARK  212  A    between atoms: _494  and  _495
REMARK  213  A    between atoms: _497  and  _499
REMARK  214  A    between atoms: _499  and  _500
REMARK  215  A    between atoms: _499  and  _502
REMARK  216  A    between atoms: _502  and  _503
REMARK  217  A    between atoms: _508  and  _509
REMARK  218  A    between atoms: _511  and  _513
REMARK  219  A    between atoms: _513  and  _514
REMARK  220  A    between atoms: _516  and  _518
REMARK  221  A    between atoms: _518  and  _519
REMARK  222  A    between atoms: _518  and  _521
REMARK  223  A    between atoms: _521  and  _522
REMARK                            x       y       z     vdW  Elec       q    Type
REMARK                         _______ _______ _______ _____ _____    ______ ____
ROOT
ATOM      1  O   HOH     1      52.341  62.010   5.559  0.00  0.00    +0.000 OA
ENDROOT
TORSDOF 0
REMARK  Name = ../refined-set-2016/3s2v/3s2v_pocket.pdb
REMARK  223 active torsions:
REMARK  status: ('A' for Active; 'I' for Inactive)
REMARK    1  A    between atoms: _1  and  _3
REMARK    2  A    between atoms: _3  and  _4
REMARK    3  A    between atoms: _3  and  _6
REMARK    4  A    between atoms: _6  and  _7
REMARK    5  A    between atoms: _10  and  _12
REMARK    6  A    between atoms: _12  and  _13
REMARK    7  A    between atoms: _12  and  _15
REMARK    8  A    between atoms: _15  and  _16
REMARK    9  A    between atoms: _19  and  _21
REMARK   10  A    between atoms: _21  and  _22
REMARK   11  A    between atoms: _21  and  _24
REMARK   12  A    between atoms: _24  and  _25
REMARK   13  A    between atoms: _25  and  _26
REMARK   14  A    between atoms: _29  and  _31
REMARK   15  A    between atoms: _31  and  _32
REMARK   16  A    between atoms: _31  and  _34
REMARK   17  A    between atoms: _34  and  _35
REMARK   18  A    between atoms: _35  and  _36
REMARK   19  A    between atoms: _40  and  _41
REMARK   20  A    between atoms: _46  and  _48
REMARK   21  A    between atoms: _48  and  _49
REMARK   22  A    between atoms: _48  and  _51
REMARK   23  A    between atoms: _51  and  _52
REMARK   24  A    between atoms: _57  and  _58
REMARK   25  A    between atoms: _60  and  _62
REMARK   26  A    between atoms: _62  and  _63
REMARK   27  A    between atoms: _62  and  _65
REMARK   28  A    between atoms: _68  and  _70
REMARK   29  A    between atoms: _70  and  _71
REMARK   30  A    between atoms: _70  and  _73
REMARK   31  A    between atoms: _73  and  _74
REMARK   32  A    between atoms: _74  and  _75
REMARK   33  A    between atoms: _75  and  _76
REMARK   34  A    between atoms: _76  and  _77
REMARK   35  A    between atoms: _81  and  _83
REMARK   36  A    between atoms: _83  and  _84
REMARK   37  A    between atoms: _83  and  _86
REMARK   38  A    between atoms: _86  and  _87
REMARK   39  A    between atoms: _92  and  _93
REMARK   40  A    between atoms: _95  and  _97
REMARK   41  A    between atoms: _97  and  _98
REMARK   42  A    between atoms: _100  and  _102
REMARK   43  A    between atoms: _102  and  _103
REMARK   44  A    between atoms: _106  and  _108
REMARK   45  A    between atoms: _108  and  _109
REMARK   46  A    between atoms: _108  and  _111
REMARK   47  A    between atoms: _111  and  _112
REMARK   48  A    between atoms: _112  and  _113
REMARK   49  A    between atoms: _115  and  _117
REMARK   50  A    between atoms: _117  and  _118
REMARK   51  A    between atoms: _117  and  _120
REMARK   52  A    between atoms: _123  and  _125
REMARK   53  A    between atoms: _125  and  _126
REMARK   54  A    between atoms: _130  and  _131
REMARK   55  A    between atoms: _136  and  _138
REMARK   56  A    between atoms: _138  and  _139
REMARK   57  A    between atoms: _138  and  _141
REMARK   58  A    between atoms: _141  and  _142
REMARK   59  A    between atoms: _145  and  _147
REMARK   60  A    between atoms: _147  and  _148
REMARK   61  A    between atoms: _147  and  _150
REMARK   62  A    between atoms: _150  and  _151
REMARK   63  A    between atoms: _154  and  _156
REMARK   64  A    between atoms: _156  and  _157
REMARK   65  A    between atoms: _156  and  _159
REMARK   66  A    between atoms: _159  and  _160
REMARK   67  A    between atoms: _163  and  _165
REMARK   68  A    between atoms: _165  and  _166
REMARK   69  A    between atoms: _165  and  _168
REMARK   70  A    between atoms: _168  and  _169
REMARK   71  A    between atoms: _172  and  _174
REMARK   72  A    between atoms: _174  and  _175
REMARK   73  A    between atoms: _174  and  _177
REMARK   74  A    between atoms: _177  and  _178
REMARK   75  A    between atoms: _178  and  _179
REMARK   76  A    between atoms: _179  and  _180
REMARK   77  A    between atoms: _189  and  _191
REMARK   78  A    between atoms: _191  and  _192
REMARK   79  A    between atoms: _191  and  _194
REMARK   80  A    between atoms: _194  and  _195
REMARK   81  A    between atoms: _201  and  _203
REMARK   82  A    between atoms: _203  and  _204
REMARK   83  A    between atoms: _203  and  _206
REMARK   84  A    between atoms: _206  and  _207
REMARK   85  A    between atoms: _207  and  _208
REMARK   86  A    between atoms: _210  and  _212
REMARK   87  A    between atoms: _212  and  _213
REMARK   88  A    between atoms: _212  and  _215
REMARK   89  A    between atoms: _215  and  _216
REMARK   90  A    between atoms: _219  and  _221
REMARK   91  A    between atoms: _221  and  _222
REMARK   92  A    between atoms: _224  and  _226
REMARK   93  A    between atoms: _226  and  _227
REMARK   94  A    between atoms: _226  and  _229
REMARK   95  A    between atoms: _229  and  _230
REMARK   96  A    between atoms: _233  and  _235
REMARK   97  A    between atoms: _235  and  _236
REMARK   98  A    between atoms: _235  and  _238
REMARK   99  A    between atoms: _238  and  _239
REMARK  100  A    between atoms: _241  and  _243
REMARK  101  A    between atoms: _243  and  _244
REMARK  102  A    between atoms: _246  and  _248
REMARK  103  A    between atoms: _248  and  _249
REMARK  104  A    between atoms: _252  and  _254
REMARK  105  A    between atoms: _254  and  _255
REMARK  106  A    between atoms: _254  and  _257
REMARK  107  A    between atoms: _260  and  _262
REMARK  108  A    between atoms: _262  and  _263
REMARK  109  A    between atoms: _262  and  _265
REMARK  110  A    between atoms: _265  and  _266
REMARK  111  A    between atoms: _266  and  _267
REMARK  112  A    between atoms: _267  and  _268
REMARK  113  A    between atoms: _277  and  _279
REMARK  114  A    between atoms: _279  and  _280
REMARK  115  A    between atoms: _279  and  _282
REMARK  116  A    between atoms: _282  and  _283
REMARK  117  A    between atoms: _286  and  _288
REMARK  118  A    between atoms: _288  and  _289
REMARK  119  A    between atoms: _291  and  _293
REMARK  120  A    between atoms: _293  and  _294
REMARK  121  A    between atoms: _293  and  _296
REMARK  122  A    between atoms: _296  and  _297
REMARK  123  A    between atoms: _299  and  _301
REMARK  124  A    between atoms: _301  and  _302
REMARK  125  A    between atoms: _301  and  _304
REMARK  126  A    between atoms: _304  and  _305
REMARK  127  A    between atoms: _308  and  _310
REMARK  128  A    between atoms: _310  and  _311
REMARK  129  A    between atoms: _310  and  _313
REMARK  130  A    between atoms: _313  and  _314
REMARK  131  A    between atoms: _314  and  _315
REMARK  132  A    between atoms: _317  and  _319
REMARK  133  A    between atoms: _319  and  _320
REMARK  134  A    between atoms: _319  and  _322
REMARK  135  A    between atoms: _322  and  _323
REMARK  136  A    between atoms: _326  and  _328
REMARK  137  A    between atoms: _328  and  _329
REMARK  138  A    between atoms: _328  and  _331
REMARK  139  A    between atoms: _331  and  _332
REMARK  140  A    between atoms: _338  and  _340
REMARK  141  A    between atoms: _340  and  _341
REMARK  142  A    between atoms: _340  and  _343
REMARK  143  A    between atoms: _343  and  _344
REMARK  144  A    between atoms: _350  and  _352
REMARK  145  A    between atoms: _352  and  _353
REMARK  146  A    between atoms: _352  and  _355
REMARK  147  A    between atoms: _358  and  _360
REMARK  148  A    between atoms: _360  and  _361
REMARK  149  A    between atoms: _360  and  _363
REMARK  150  A    between atoms: _363  and  _364
REMARK  151  A    between atoms: _364  and  _365
REMARK  152  A    between atoms: _365  and  _366
REMARK  153  A    between atoms: _366  and  _367
REMARK  154  A    between atoms: _371  and  _373
REMARK  155  A    between atoms: _373  and  _374
REMARK  156  A    between atoms: _373  and  _376
REMARK  157  A    between atoms: _376  and  _377
REMARK  158  A    between atoms: _382  and  _384
REMARK  159  A    between atoms: _384  and  _385
REMARK  160  A    between atoms: _384  and  _387
REMARK  161  A    between atoms: _387  and  _388
REMARK  162  A    between atoms: _390  and  _392
REMARK  163  A    between atoms: _392  and  _393
REMARK  164  A    between atoms: _392  and  _395
REMARK  165  A    between atoms: _395  and  _396
REMARK  166  A    between atoms: _399  and  _401
REMARK  167  A    between atoms: _401  and  _402
REMARK  168  A    between atoms: _401  and  _404
REMARK  169  A    between atoms: _404  and  _405
REMARK  170  A    between atoms: _408  and  _410
REMARK  171  A    between atoms: _410  and  _411
REMARK  172  A    between atoms: _410  and  _413
REMARK  173  A    between atoms: _413  and  _414
REMARK  174  A    between atoms: _417  and  _419
REMARK  175  A    between atoms: _419  and  _420
REMARK  176  A    between atoms: _419  and  _422
REMARK  177  A    between atoms: _422  and  _423
REMARK  178  A    between atoms: _423  and  _424
REMARK  179  A    between atoms: _426  and  _428
REMARK  180  A    between atoms: _428  and  _429
REMARK  181  A    between atoms: _428  and  _431
REMARK  182  A    between atoms: _431  and  _432
REMARK  183  A    between atoms: _432  and  _433
REMARK  184  A    between atoms: _436  and  _438
REMARK  185  A    between atoms: _438  and  _439
REMARK  186  A    between atoms: _438  and  _441
REMARK  187  A    between atoms: _441  and  _442
REMARK  188  A    between atoms: _444  and  _446
REMARK  189  A    between atoms: _446  and  _447
REMARK  190  A    between atoms: _446  and  _449
REMARK  191  A    between atoms: _449  and  _450
REMARK  192  A    between atoms: _453  and  _455
REMARK  193  A    between atoms: _455  and  _456
REMARK  194  A    between atoms: _455  and  _458
REMARK  195  A    between atoms: _458  and  _459
REMARK  196  A    between atoms: _461  and  _463
REMARK  197  A    between atoms: _463  and  _464
REMARK  198  A    between atoms: _463  and  _466
REMARK  199  A    between atoms: _466  and  _467
REMARK  200  A    between atoms: _470  and  _472
REMARK  201  A    between atoms: _472  and  _473
REMARK  202  A    between atoms: _472  and  _475
REMARK  203  A    between atoms: _475  and  _476
REMARK  204  A    between atoms: _479  and  _481
REMARK  205  A    between atoms: _481  and  _482
REMARK  206  A    between atoms: _481  and  _484
REMARK  207  A    between atoms: _484  and  _485
REMARK  208  A    between atoms: _485  and  _486
REMARK  209  A    between atoms: _486  and  _487
REMARK  210  A    between atoms: _487  and  _488
REMARK  211  A    between atoms: _492  and  _494
REMARK  212  A    between atoms: _494  and  _495
REMARK  213  A    between atoms: _497  and  _499
REMARK  214  A    between atoms: _499  and  _500
REMARK  215  A    between atoms: _499  and  _502
REMARK  216  A    between atoms: _502  and  _503
REMARK  217  A    between atoms: _508  and  _509
REMARK  218  A    between atoms: _511  and  _513
REMARK  219  A    between atoms: _513  and  _514
REMARK  220  A    between atoms: _516  and  _518
REMARK  221  A    between atoms: _518  and  _519
REMARK  222  A    between atoms: _518  and  _521
REMARK  223  A    between atoms: _521  and  _522
REMARK                            x       y       z     vdW  Elec       q    Type
REMARK                         _______ _______ _______ _____ _____    ______ ____
ROOT
ATOM      1  O   HOH     1      44.958  65.895   3.609  0.00  0.00    +0.000 OA
ENDROOT
TORSDOF 0
REMARK  Name = ../refined-set-2016/3s2v/3s2v_pocket.pdb
REMARK  223 active torsions:
REMARK  status: ('A' for Active; 'I' for Inactive)
REMARK    1  A    between atoms: _1  and  _3
REMARK    2  A    between atoms: _3  and  _4
REMARK    3  A    between atoms: _3  and  _6
REMARK    4  A    between atoms: _6  and  _7
REMARK    5  A    between atoms: _10  and  _12
REMARK    6  A    between atoms: _12  and  _13
REMARK    7  A    between atoms: _12  and  _15
REMARK    8  A    between atoms: _15  and  _16
REMARK    9  A    between atoms: _19  and  _21
REMARK   10  A    between atoms: _21  and  _22
REMARK   11  A    between atoms: _21  and  _24
REMARK   12  A    between atoms: _24  and  _25
REMARK   13  A    between atoms: _25  and  _26
REMARK   14  A    between atoms: _29  and  _31
REMARK   15  A    between atoms: _31  and  _32
REMARK   16  A    between atoms: _31  and  _34
REMARK   17  A    between atoms: _34  and  _35
REMARK   18  A    between atoms: _35  and  _36
REMARK   19  A    between atoms: _40  and  _41
REMARK   20  A    between atoms: _46  and  _48
REMARK   21  A    between atoms: _48  and  _49
REMARK   22  A    between atoms: _48  and  _51
REMARK   23  A    between atoms: _51  and  _52
REMARK   24  A    between atoms: _57  and  _58
REMARK   25  A    between atoms: _60  and  _62
REMARK   26  A    between atoms: _62  and  _63
REMARK   27  A    between atoms: _62  and  _65
REMARK   28  A    between atoms: _68  and  _70
REMARK   29  A    between atoms: _70  and  _71
REMARK   30  A    between atoms: _70  and  _73
REMARK   31  A    between atoms: _73  and  _74
REMARK   32  A    between atoms: _74  and  _75
REMARK   33  A    between atoms: _75  and  _76
REMARK   34  A    between atoms: _76  and  _77
REMARK   35  A    between atoms: _81  and  _83
REMARK   36  A    between atoms: _83  and  _84
REMARK   37  A    between atoms: _83  and  _86
REMARK   38  A    between atoms: _86  and  _87
REMARK   39  A    between atoms: _92  and  _93
REMARK   40  A    between atoms: _95  and  _97
REMARK   41  A    between atoms: _97  and  _98
REMARK   42  A    between atoms: _100  and  _102
REMARK   43  A    between atoms: _102  and  _103
REMARK   44  A    between atoms: _106  and  _108
REMARK   45  A    between atoms: _108  and  _109
REMARK   46  A    between atoms: _108  and  _111
REMARK   47  A    between atoms: _111  and  _112
REMARK   48  A    between atoms: _112  and  _113
REMARK   49  A    between atoms: _115  and  _117
REMARK   50  A    between atoms: _117  and  _118
REMARK   51  A    between atoms: _117  and  _120
REMARK   52  A    between atoms: _123  and  _125
REMARK   53  A    between atoms: _125  and  _126
REMARK   54  A    between atoms: _130  and  _131
REMARK   55  A    between atoms: _136  and  _138
REMARK   56  A    between atoms: _138  and  _139
REMARK   57  A    between atoms: _138  and  _141
REMARK   58  A    between atoms: _141  and  _142
REMARK   59  A    between atoms: _145  and  _147
REMARK   60  A    between atoms: _147  and  _148
REMARK   61  A    between atoms: _147  and  _150
REMARK   62  A    between atoms: _150  and  _151
REMARK   63  A    between atoms: _154  and  _156
REMARK   64  A    between atoms: _156  and  _157
REMARK   65  A    between atoms: _156  and  _159
REMARK   66  A    between atoms: _159  and  _160
REMARK   67  A    between atoms: _163  and  _165
REMARK   68  A    between atoms: _165  and  _166
REMARK   69  A    between atoms: _165  and  _168
REMARK   70  A    between atoms: _168  and  _169
REMARK   71  A    between atoms: _172  and  _174
REMARK   72  A    between atoms: _174  and  _175
REMARK   73  A    between atoms: _174  and  _177
REMARK   74  A    between atoms: _177  and  _178
REMARK   75  A    between atoms: _178  and  _179
REMARK   76  A    between atoms: _179  and  _180
REMARK   77  A    between atoms: _189  and  _191
REMARK   78  A    between atoms: _191  and  _192
REMARK   79  A    between atoms: _191  and  _194
REMARK   80  A    between atoms: _194  and  _195
REMARK   81  A    between atoms: _201  and  _203
REMARK   82  A    between atoms: _203  and  _204
REMARK   83  A    between atoms: _203  and  _206
REMARK   84  A    between atoms: _206  and  _207
REMARK   85  A    between atoms: _207  and  _208
REMARK   86  A    between atoms: _210  and  _212
REMARK   87  A    between atoms: _212  and  _213
REMARK   88  A    between atoms: _212  and  _215
REMARK   89  A    between atoms: _215  and  _216
REMARK   90  A    between atoms: _219  and  _221
REMARK   91  A    between atoms: _221  and  _222
REMARK   92  A    between atoms: _224  and  _226
REMARK   93  A    between atoms: _226  and  _227
REMARK   94  A    between atoms: _226  and  _229
REMARK   95  A    between atoms: _229  and  _230
REMARK   96  A    between atoms: _233  and  _235
REMARK   97  A    between atoms: _235  and  _236
REMARK   98  A    between atoms: _235  and  _238
REMARK   99  A    between atoms: _238  and  _239
REMARK  100  A    between atoms: _241  and  _243
REMARK  101  A    between atoms: _243  and  _244
REMARK  102  A    between atoms: _246  and  _248
REMARK  103  A    between atoms: _248  and  _249
REMARK  104  A    between atoms: _252  and  _254
REMARK  105  A    between atoms: _254  and  _255
REMARK  106  A    between atoms: _254  and  _257
REMARK  107  A    between atoms: _260  and  _262
REMARK  108  A    between atoms: _262  and  _263
REMARK  109  A    between atoms: _262  and  _265
REMARK  110  A    between atoms: _265  and  _266
REMARK  111  A    between atoms: _266  and  _267
REMARK  112  A    between atoms: _267  and  _268
REMARK  113  A    between atoms: _277  and  _279
REMARK  114  A    between atoms: _279  and  _280
REMARK  115  A    between atoms: _279  and  _282
REMARK  116  A    between atoms: _282  and  _283
REMARK  117  A    between atoms: _286  and  _288
REMARK  118  A    between atoms: _288  and  _289
REMARK  119  A    between atoms: _291  and  _293
REMARK  120  A    between atoms: _293  and  _294
REMARK  121  A    between atoms: _293  and  _296
REMARK  122  A    between atoms: _296  and  _297
REMARK  123  A    between atoms: _299  and  _301
REMARK  124  A    between atoms: _301  and  _302
REMARK  125  A    between atoms: _301  and  _304
REMARK  126  A    between atoms: _304  and  _305
REMARK  127  A    between atoms: _308  and  _310
REMARK  128  A    between atoms: _310  and  _311
REMARK  129  A    between atoms: _310  and  _313
REMARK  130  A    between atoms: _313  and  _314
REMARK  131  A    between atoms: _314  and  _315
REMARK  132  A    between atoms: _317  and  _319
REMARK  133  A    between atoms: _319  and  _320
REMARK  134  A    between atoms: _319  and  _322
REMARK  135  A    between atoms: _322  and  _323
REMARK  136  A    between atoms: _326  and  _328
REMARK  137  A    between atoms: _328  and  _329
REMARK  138  A    between atoms: _328  and  _331
REMARK  139  A    between atoms: _331  and  _332
REMARK  140  A    between atoms: _338  and  _340
REMARK  141  A    between atoms: _340  and  _341
REMARK  142  A    between atoms: _340  and  _343
REMARK  143  A    between atoms: _343  and  _344
REMARK  144  A    between atoms: _350  and  _352
REMARK  145  A    between atoms: _352  and  _353
REMARK  146  A    between atoms: _352  and  _355
REMARK  147  A    between atoms: _358  and  _360
REMARK  148  A    between atoms: _360  and  _361
REMARK  149  A    between atoms: _360  and  _363
REMARK  150  A    between atoms: _363  and  _364
REMARK  151  A    between atoms: _364  and  _365
REMARK  152  A    between atoms: _365  and  _366
REMARK  153  A    between atoms: _366  and  _367
REMARK  154  A    between atoms: _371  and  _373
REMARK  155  A    between atoms: _373  and  _374
REMARK  156  A    between atoms: _373  and  _376
REMARK  157  A    between atoms: _376  and  _377
REMARK  158  A    between atoms: _382  and  _384
REMARK  159  A    between atoms: _384  and  _385
REMARK  160  A    between atoms: _384  and  _387
REMARK  161  A    between atoms: _387  and  _388
REMARK  162  A    between atoms: _390  and  _392
REMARK  163  A    between atoms: _392  and  _393
REMARK  164  A    between atoms: _392  and  _395
REMARK  165  A    between atoms: _395  and  _396
REMARK  166  A    between atoms: _399  and  _401
REMARK  167  A    between atoms: _401  and  _402
REMARK  168  A    between atoms: _401  and  _404
REMARK  169  A    between atoms: _404  and  _405
REMARK  170  A    between atoms: _408  and  _410
REMARK  171  A    between atoms: _410  and  _411
REMARK  172  A    between atoms: _410  and  _413
REMARK  173  A    between atoms: _413  and  _414
REMARK  174  A    between atoms: _417  and  _419
REMARK  175  A    between atoms: _419  and  _420
REMARK  176  A    between atoms: _419  and  _422
REMARK  177  A    between atoms: _422  and  _423
REMARK  178  A    between atoms: _423  and  _424
REMARK  179  A    between atoms: _426  and  _428
REMARK  180  A    between atoms: _428  and  _429
REMARK  181  A    between atoms: _428  and  _431
REMARK  182  A    between atoms: _431  and  _432
REMARK  183  A    between atoms: _432  and  _433
REMARK  184  A    between atoms: _436  and  _438
REMARK  185  A    between atoms: _438  and  _439
REMARK  186  A    between atoms: _438  and  _441
REMARK  187  A    between atoms: _441  and  _442
REMARK  188  A    between atoms: _444  and  _446
REMARK  189  A    between atoms: _446  and  _447
REMARK  190  A    between atoms: _446  and  _449
REMARK  191  A    between atoms: _449  and  _450
REMARK  192  A    between atoms: _453  and  _455
REMARK  193  A    between atoms: _455  and  _456
REMARK  194  A    between atoms: _455  and  _458
REMARK  195  A    between atoms: _458  and  _459
REMARK  196  A    between atoms: _461  and  _463
REMARK  197  A    between atoms: _463  and  _464
REMARK  198  A    between atoms: _463  and  _466
REMARK  199  A    between atoms: _466  and  _467
REMARK  200  A    between atoms: _470  and  _472
REMARK  201  A    between atoms: _472  and  _473
REMARK  202  A    between atoms: _472  and  _475
REMARK  203  A    between atoms: _475  and  _476
REMARK  204  A    between atoms: _479  and  _481
REMARK  205  A    between atoms: _481  and  _482
REMARK  206  A    between atoms: _481  and  _484
REMARK  207  A    between atoms: _484  and  _485
REMARK  208  A    between atoms: _485  and  _486
REMARK  209  A    between atoms: _486  and  _487
REMARK  210  A    between atoms: _487  and  _488
REMARK  211  A    between atoms: _492  and  _494
REMARK  212  A    between atoms: _494  and  _495
REMARK  213  A    between atoms: _497  and  _499
REMARK  214  A    between atoms: _499  and  _500
REMARK  215  A    between atoms: _499  and  _502
REMARK  216  A    between atoms: _502  and  _503
REMARK  217  A    between atoms: _508  and  _509
REMARK  218  A    between atoms: _511  and  _513
REMARK  219  A    between atoms: _513  and  _514
REMARK  220  A    between atoms: _516  and  _518
REMARK  221  A    between atoms: _518  and  _519
REMARK  222  A    between atoms: _518  and  _521
REMARK  223  A    between atoms: _521  and  _522
REMARK                            x       y       z     vdW  Elec       q    Type
REMARK                         _______ _______ _______ _____ _____    ______ ____
ROOT
ATOM      1  O   HOH     1      45.006  58.900  11.678  0.00  0.00    +0.000 OA
ENDROOT
TORSDOF 0
REMARK  Name = ../refined-set-2016/3s2v/3s2v_pocket.pdb
REMARK  223 active torsions:
REMARK  status: ('A' for Active; 'I' for Inactive)
REMARK    1  A    between atoms: _1  and  _3
REMARK    2  A    between atoms: _3  and  _4
REMARK    3  A    between atoms: _3  and  _6
REMARK    4  A    between atoms: _6  and  _7
REMARK    5  A    between atoms: _10  and  _12
REMARK    6  A    between atoms: _12  and  _13
REMARK    7  A    between atoms: _12  and  _15
REMARK    8  A    between atoms: _15  and  _16
REMARK    9  A    between atoms: _19  and  _21
REMARK   10  A    between atoms: _21  and  _22
REMARK   11  A    between atoms: _21  and  _24
REMARK   12  A    between atoms: _24  and  _25
REMARK   13  A    between atoms: _25  and  _26
REMARK   14  A    between atoms: _29  and  _31
REMARK   15  A    between atoms: _31  and  _32
REMARK   16  A    between atoms: _31  and  _34
REMARK   17  A    between atoms: _34  and  _35
REMARK   18  A    between atoms: _35  and  _36
REMARK   19  A    between atoms: _40  and  _41
REMARK   20  A    between atoms: _46  and  _48
REMARK   21  A    between atoms: _48  and  _49
REMARK   22  A    between atoms: _48  and  _51
REMARK   23  A    between atoms: _51  and  _52
REMARK   24  A    between atoms: _57  and  _58
REMARK   25  A    between atoms: _60  and  _62
REMARK   26  A    between atoms: _62  and  _63
REMARK   27  A    between atoms: _62  and  _65
REMARK   28  A    between atoms: _68  and  _70
REMARK   29  A    between atoms: _70  and  _71
REMARK   30  A    between atoms: _70  and  _73
REMARK   31  A    between atoms: _73  and  _74
REMARK   32  A    between atoms: _74  and  _75
REMARK   33  A    between atoms: _75  and  _76
REMARK   34  A    between atoms: _76  and  _77
REMARK   35  A    between atoms: _81  and  _83
REMARK   36  A    between atoms: _83  and  _84
REMARK   37  A    between atoms: _83  and  _86
REMARK   38  A    between atoms: _86  and  _87
REMARK   39  A    between atoms: _92  and  _93
REMARK   40  A    between atoms: _95  and  _97
REMARK   41  A    between atoms: _97  and  _98
REMARK   42  A    between atoms: _100  and  _102
REMARK   43  A    between atoms: _102  and  _103
REMARK   44  A    between atoms: _106  and  _108
REMARK   45  A    between atoms: _108  and  _109
REMARK   46  A    between atoms: _108  and  _111
REMARK   47  A    between atoms: _111  and  _112
REMARK   48  A    between atoms: _112  and  _113
REMARK   49  A    between atoms: _115  and  _117
REMARK   50  A    between atoms: _117  and  _118
REMARK   51  A    between atoms: _117  and  _120
REMARK   52  A    between atoms: _123  and  _125
REMARK   53  A    between atoms: _125  and  _126
REMARK   54  A    between atoms: _130  and  _131
REMARK   55  A    between atoms: _136  and  _138
REMARK   56  A    between atoms: _138  and  _139
REMARK   57  A    between atoms: _138  and  _141
REMARK   58  A    between atoms: _141  and  _142
REMARK   59  A    between atoms: _145  and  _147
REMARK   60  A    between atoms: _147  and  _148
REMARK   61  A    between atoms: _147  and  _150
REMARK   62  A    between atoms: _150  and  _151
REMARK   63  A    between atoms: _154  and  _156
REMARK   64  A    between atoms: _156  and  _157
REMARK   65  A    between atoms: _156  and  _159
REMARK   66  A    between atoms: _159  and  _160
REMARK   67  A    between atoms: _163  and  _165
REMARK   68  A    between atoms: _165  and  _166
REMARK   69  A    between atoms: _165  and  _168
REMARK   70  A    between atoms: _168  and  _169
REMARK   71  A    between atoms: _172  and  _174
REMARK   72  A    between atoms: _174  and  _175
REMARK   73  A    between atoms: _174  and  _177
REMARK   74  A    between atoms: _177  and  _178
REMARK   75  A    between atoms: _178  and  _179
REMARK   76  A    between atoms: _179  and  _180
REMARK   77  A    between atoms: _189  and  _191
REMARK   78  A    between atoms: _191  and  _192
REMARK   79  A    between atoms: _191  and  _194
REMARK   80  A    between atoms: _194  and  _195
REMARK   81  A    between atoms: _201  and  _203
REMARK   82  A    between atoms: _203  and  _204
REMARK   83  A    between atoms: _203  and  _206
REMARK   84  A    between atoms: _206  and  _207
REMARK   85  A    between atoms: _207  and  _208
REMARK   86  A    between atoms: _210  and  _212
REMARK   87  A    between atoms: _212  and  _213
REMARK   88  A    between atoms: _212  and  _215
REMARK   89  A    between atoms: _215  and  _216
REMARK   90  A    between atoms: _219  and  _221
REMARK   91  A    between atoms: _221  and  _222
REMARK   92  A    between atoms: _224  and  _226
REMARK   93  A    between atoms: _226  and  _227
REMARK   94  A    between atoms: _226  and  _229
REMARK   95  A    between atoms: _229  and  _230
REMARK   96  A    between atoms: _233  and  _235
REMARK   97  A    between atoms: _235  and  _236
REMARK   98  A    between atoms: _235  and  _238
REMARK   99  A    between atoms: _238  and  _239
REMARK  100  A    between atoms: _241  and  _243
REMARK  101  A    between atoms: _243  and  _244
REMARK  102  A    between atoms: _246  and  _248
REMARK  103  A    between atoms: _248  and  _249
REMARK  104  A    between atoms: _252  and  _254
REMARK  105  A    between atoms: _254  and  _255
REMARK  106  A    between atoms: _254  and  _257
REMARK  107  A    between atoms: _260  and  _262
REMARK  108  A    between atoms: _262  and  _263
REMARK  109  A    between atoms: _262  and  _265
REMARK  110  A    between atoms: _265  and  _266
REMARK  111  A    between atoms: _266  and  _267
REMARK  112  A    between atoms: _267  and  _268
REMARK  113  A    between atoms: _277  and  _279
REMARK  114  A    between atoms: _279  and  _280
REMARK  115  A    between atoms: _279  and  _282
REMARK  116  A    between atoms: _282  and  _283
REMARK  117  A    between atoms: _286  and  _288
REMARK  118  A    between atoms: _288  and  _289
REMARK  119  A    between atoms: _291  and  _293
REMARK  120  A    between atoms: _293  and  _294
REMARK  121  A    between atoms: _293  and  _296
REMARK  122  A    between atoms: _296  and  _297
REMARK  123  A    between atoms: _299  and  _301
REMARK  124  A    between atoms: _301  and  _302
REMARK  125  A    between atoms: _301  and  _304
REMARK  126  A    between atoms: _304  and  _305
REMARK  127  A    between atoms: _308  and  _310
REMARK  128  A    between atoms: _310  and  _311
REMARK  129  A    between atoms: _310  and  _313
REMARK  130  A    between atoms: _313  and  _314
REMARK  131  A    between atoms: _314  and  _315
REMARK  132  A    between atoms: _317  and  _319
REMARK  133  A    between atoms: _319  and  _320
REMARK  134  A    between atoms: _319  and  _322
REMARK  135  A    between atoms: _322  and  _323
REMARK  136  A    between atoms: _326  and  _328
REMARK  137  A    between atoms: _328  and  _329
REMARK  138  A    between atoms: _328  and  _331
REMARK  139  A    between atoms: _331  and  _332
REMARK  140  A    between atoms: _338  and  _340
REMARK  141  A    between atoms: _340  and  _341
REMARK  142  A    between atoms: _340  and  _343
REMARK  143  A    between atoms: _343  and  _344
REMARK  144  A    between atoms: _350  and  _352
REMARK  145  A    between atoms: _352  and  _353
REMARK  146  A    between atoms: _352  and  _355
REMARK  147  A    between atoms: _358  and  _360
REMARK  148  A    between atoms: _360  and  _361
REMARK  149  A    between atoms: _360  and  _363
REMARK  150  A    between atoms: _363  and  _364
REMARK  151  A    between atoms: _364  and  _365
REMARK  152  A    between atoms: _365  and  _366
REMARK  153  A    between atoms: _366  and  _367
REMARK  154  A    between atoms: _371  and  _373
REMARK  155  A    between atoms: _373  and  _374
REMARK  156  A    between atoms: _373  and  _376
REMARK  157  A    between atoms: _376  and  _377
REMARK  158  A    between atoms: _382  and  _384
REMARK  159  A    between atoms: _384  and  _385
REMARK  160  A    between atoms: _384  and  _387
REMARK  161  A    between atoms: _387  and  _388
REMARK  162  A    between atoms: _390  and  _392
REMARK  163  A    between atoms: _392  and  _393
REMARK  164  A    between atoms: _392  and  _395
REMARK  165  A    between atoms: _395  and  _396
REMARK  166  A    between atoms: _399  and  _401
REMARK  167  A    between atoms: _401  and  _402
REMARK  168  A    between atoms: _401  and  _404
REMARK  169  A    between atoms: _404  and  _405
REMARK  170  A    between atoms: _408  and  _410
REMARK  171  A    between atoms: _410  and  _411
REMARK  172  A    between atoms: _410  and  _413
REMARK  173  A    between atoms: _413  and  _414
REMARK  174  A    between atoms: _417  and  _419
REMARK  175  A    between atoms: _419  and  _420
REMARK  176  A    between atoms: _419  and  _422
REMARK  177  A    between atoms: _422  and  _423
REMARK  178  A    between atoms: _423  and  _424
REMARK  179  A    between atoms: _426  and  _428
REMARK  180  A    between atoms: _428  and  _429
REMARK  181  A    between atoms: _428  and  _431
REMARK  182  A    between atoms: _431  and  _432
REMARK  183  A    between atoms: _432  and  _433
REMARK  184  A    between atoms: _436  and  _438
REMARK  185  A    between atoms: _438  and  _439
REMARK  186  A    between atoms: _438  and  _441
REMARK  187  A    between atoms: _441  and  _442
REMARK  188  A    between atoms: _444  and  _446
REMARK  189  A    between atoms: _446  and  _447
REMARK  190  A    between atoms: _446  and  _449
REMARK  191  A    between atoms: _449  and  _450
REMARK  192  A    between atoms: _453  and  _455
REMARK  193  A    between atoms: _455  and  _456
REMARK  194  A    between atoms: _455  and  _458
REMARK  195  A    between atoms: _458  and  _459
REMARK  196  A    between atoms: _461  and  _463
REMARK  197  A    between atoms: _463  and  _464
REMARK  198  A    between atoms: _463  and  _466
REMARK  199  A    between atoms: _466  and  _467
REMARK  200  A    between atoms: _470  and  _472
REMARK  201  A    between atoms: _472  and  _473
REMARK  202  A    between atoms: _472  and  _475
REMARK  203  A    between atoms: _475  and  _476
REMARK  204  A    between atoms: _479  and  _481
REMARK  205  A    between atoms: _481  and  _482
REMARK  206  A    between atoms: _481  and  _484
REMARK  207  A    between atoms: _484  and  _485
REMARK  208  A    between atoms: _485  and  _486
REMARK  209  A    between atoms: _486  and  _487
REMARK  210  A    between atoms: _487  and  _488
REMARK  211  A    between atoms: _492  and  _494
REMARK  212  A    between atoms: _494  and  _495
REMARK  213  A    between atoms: _497  and  _499
REMARK  214  A    between atoms: _499  and  _500
REMARK  215  A    between atoms: _499  and  _502
REMARK  216  A    between atoms: _502  and  _503
REMARK  217  A    between atoms: _508  and  _509
REMARK  218  A    between atoms: _511  and  _513
REMARK  219  A    between atoms: _513  and  _514
REMARK  220  A    between atoms: _516  and  _518
REMARK  221  A    between atoms: _518  and  _519
REMARK  222  A    between atoms: _518  and  _521
REMARK  223  A    between atoms: _521  and  _522
REMARK                            x       y       z     vdW  Elec       q    Type
REMARK                         _______ _______ _______ _____ _____    ______ ____
ROOT
ATOM      1  O   HOH     1      55.425  63.340   4.231  0.00  0.00    +0.000 OA
ENDROOT
TORSDOF 0
REMARK  Name = ../refined-set-2016/3s2v/3s2v_pocket.pdb
REMARK  223 active torsions:
REMARK  status: ('A' for Active; 'I' for Inactive)
REMARK    1  A    between atoms: _1  and  _3
REMARK    2  A    between atoms: _3  and  _4
REMARK    3  A    between atoms: _3  and  _6
REMARK    4  A    between atoms: _6  and  _7
REMARK    5  A    between atoms: _10  and  _12
REMARK    6  A    between atoms: _12  and  _13
REMARK    7  A    between atoms: _12  and  _15
REMARK    8  A    between atoms: _15  and  _16
REMARK    9  A    between atoms: _19  and  _21
REMARK   10  A    between atoms: _21  and  _22
REMARK   11  A    between atoms: _21  and  _24
REMARK   12  A    between atoms: _24  and  _25
REMARK   13  A    between atoms: _25  and  _26
REMARK   14  A    between atoms: _29  and  _31
REMARK   15  A    between atoms: _31  and  _32
REMARK   16  A    between atoms: _31  and  _34
REMARK   17  A    between atoms: _34  and  _35
REMARK   18  A    between atoms: _35  and  _36
REMARK   19  A    between atoms: _40  and  _41
REMARK   20  A    between atoms: _46  and  _48
REMARK   21  A    between atoms: _48  and  _49
REMARK   22  A    between atoms: _48  and  _51
REMARK   23  A    between atoms: _51  and  _52
REMARK   24  A    between atoms: _57  and  _58
REMARK   25  A    between atoms: _60  and  _62
REMARK   26  A    between atoms: _62  and  _63
REMARK   27  A    between atoms: _62  and  _65
REMARK   28  A    between atoms: _68  and  _70
REMARK   29  A    between atoms: _70  and  _71
REMARK   30  A    between atoms: _70  and  _73
REMARK   31  A    between atoms: _73  and  _74
REMARK   32  A    between atoms: _74  and  _75
REMARK   33  A    between atoms: _75  and  _76
REMARK   34  A    between atoms: _76  and  _77
REMARK   35  A    between atoms: _81  and  _83
REMARK   36  A    between atoms: _83  and  _84
REMARK   37  A    between atoms: _83  and  _86
REMARK   38  A    between atoms: _86  and  _87
REMARK   39  A    between atoms: _92  and  _93
REMARK   40  A    between atoms: _95  and  _97
REMARK   41  A    between atoms: _97  and  _98
REMARK   42  A    between atoms: _100  and  _102
REMARK   43  A    between atoms: _102  and  _103
REMARK   44  A    between atoms: _106  and  _108
REMARK   45  A    between atoms: _108  and  _109
REMARK   46  A    between atoms: _108  and  _111
REMARK   47  A    between atoms: _111  and  _112
REMARK   48  A    between atoms: _112  and  _113
REMARK   49  A    between atoms: _115  and  _117
REMARK   50  A    between atoms: _117  and  _118
REMARK   51  A    between atoms: _117  and  _120
REMARK   52  A    between atoms: _123  and  _125
REMARK   53  A    between atoms: _125  and  _126
REMARK   54  A    between atoms: _130  and  _131
REMARK   55  A    between atoms: _136  and  _138
REMARK   56  A    between atoms: _138  and  _139
REMARK   57  A    between atoms: _138  and  _141
REMARK   58  A    between atoms: _141  and  _142
REMARK   59  A    between atoms: _145  and  _147
REMARK   60  A    between atoms: _147  and  _148
REMARK   61  A    between atoms: _147  and  _150
REMARK   62  A    between atoms: _150  and  _151
REMARK   63  A    between atoms: _154  and  _156
REMARK   64  A    between atoms: _156  and  _157
REMARK   65  A    between atoms: _156  and  _159
REMARK   66  A    between atoms: _159  and  _160
REMARK   67  A    between atoms: _163  and  _165
REMARK   68  A    between atoms: _165  and  _166
REMARK   69  A    between atoms: _165  and  _168
REMARK   70  A    between atoms: _168  and  _169
REMARK   71  A    between atoms: _172  and  _174
REMARK   72  A    between atoms: _174  and  _175
REMARK   73  A    between atoms: _174  and  _177
REMARK   74  A    between atoms: _177  and  _178
REMARK   75  A    between atoms: _178  and  _179
REMARK   76  A    between atoms: _179  and  _180
REMARK   77  A    between atoms: _189  and  _191
REMARK   78  A    between atoms: _191  and  _192
REMARK   79  A    between atoms: _191  and  _194
REMARK   80  A    between atoms: _194  and  _195
REMARK   81  A    between atoms: _201  and  _203
REMARK   82  A    between atoms: _203  and  _204
REMARK   83  A    between atoms: _203  and  _206
REMARK   84  A    between atoms: _206  and  _207
REMARK   85  A    between atoms: _207  and  _208
REMARK   86  A    between atoms: _210  and  _212
REMARK   87  A    between atoms: _212  and  _213
REMARK   88  A    between atoms: _212  and  _215
REMARK   89  A    between atoms: _215  and  _216
REMARK   90  A    between atoms: _219  and  _221
REMARK   91  A    between atoms: _221  and  _222
REMARK   92  A    between atoms: _224  and  _226
REMARK   93  A    between atoms: _226  and  _227
REMARK   94  A    between atoms: _226  and  _229
REMARK   95  A    between atoms: _229  and  _230
REMARK   96  A    between atoms: _233  and  _235
REMARK   97  A    between atoms: _235  and  _236
REMARK   98  A    between atoms: _235  and  _238
REMARK   99  A    between atoms: _238  and  _239
REMARK  100  A    between atoms: _241  and  _243
REMARK  101  A    between atoms: _243  and  _244
REMARK  102  A    between atoms: _246  and  _248
REMARK  103  A    between atoms: _248  and  _249
REMARK  104  A    between atoms: _252  and  _254
REMARK  105  A    between atoms: _254  and  _255
REMARK  106  A    between atoms: _254  and  _257
REMARK  107  A    between atoms: _260  and  _262
REMARK  108  A    between atoms: _262  and  _263
REMARK  109  A    between atoms: _262  and  _265
REMARK  110  A    between atoms: _265  and  _266
REMARK  111  A    between atoms: _266  and  _267
REMARK  112  A    between atoms: _267  and  _268
REMARK  113  A    between atoms: _277  and  _279
REMARK  114  A    between atoms: _279  and  _280
REMARK  115  A    between atoms: _279  and  _282
REMARK  116  A    between atoms: _282  and  _283
REMARK  117  A    between atoms: _286  and  _288
REMARK  118  A    between atoms: _288  and  _289
REMARK  119  A    between atoms: _291  and  _293
REMARK  120  A    between atoms: _293  and  _294
REMARK  121  A    between atoms: _293  and  _296
REMARK  122  A    between atoms: _296  and  _297
REMARK  123  A    between atoms: _299  and  _301
REMARK  124  A    between atoms: _301  and  _302
REMARK  125  A    between atoms: _301  and  _304
REMARK  126  A    between atoms: _304  and  _305
REMARK  127  A    between atoms: _308  and  _310
REMARK  128  A    between atoms: _310  and  _311
REMARK  129  A    between atoms: _310  and  _313
REMARK  130  A    between atoms: _313  and  _314
REMARK  131  A    between atoms: _314  and  _315
REMARK  132  A    between atoms: _317  and  _319
REMARK  133  A    between atoms: _319  and  _320
REMARK  134  A    between atoms: _319  and  _322
REMARK  135  A    between atoms: _322  and  _323
REMARK  136  A    between atoms: _326  and  _328
REMARK  137  A    between atoms: _328  and  _329
REMARK  138  A    between atoms: _328  and  _331
REMARK  139  A    between atoms: _331  and  _332
REMARK  140  A    between atoms: _338  and  _340
REMARK  141  A    between atoms: _340  and  _341
REMARK  142  A    between atoms: _340  and  _343
REMARK  143  A    between atoms: _343  and  _344
REMARK  144  A    between atoms: _350  and  _352
REMARK  145  A    between atoms: _352  and  _353
REMARK  146  A    between atoms: _352  and  _355
REMARK  147  A    between atoms: _358  and  _360
REMARK  148  A    between atoms: _360  and  _361
REMARK  149  A    between atoms: _360  and  _363
REMARK  150  A    between atoms: _363  and  _364
REMARK  151  A    between atoms: _364  and  _365
REMARK  152  A    between atoms: _365  and  _366
REMARK  153  A    between atoms: _366  and  _367
REMARK  154  A    between atoms: _371  and  _373
REMARK  155  A    between atoms: _373  and  _374
REMARK  156  A    between atoms: _373  and  _376
REMARK  157  A    between atoms: _376  and  _377
REMARK  158  A    between atoms: _382  and  _384
REMARK  159  A    between atoms: _384  and  _385
REMARK  160  A    between atoms: _384  and  _387
REMARK  161  A    between atoms: _387  and  _388
REMARK  162  A    between atoms: _390  and  _392
REMARK  163  A    between atoms: _392  and  _393
REMARK  164  A    between atoms: _392  and  _395
REMARK  165  A    between atoms: _395  and  _396
REMARK  166  A    between atoms: _399  and  _401
REMARK  167  A    between atoms: _401  and  _402
REMARK  168  A    between atoms: _401  and  _404
REMARK  169  A    between atoms: _404  and  _405
REMARK  170  A    between atoms: _408  and  _410
REMARK  171  A    between atoms: _410  and  _411
REMARK  172  A    between atoms: _410  and  _413
REMARK  173  A    between atoms: _413  and  _414
REMARK  174  A    between atoms: _417  and  _419
REMARK  175  A    between atoms: _419  and  _420
REMARK  176  A    between atoms: _419  and  _422
REMARK  177  A    between atoms: _422  and  _423
REMARK  178  A    between atoms: _423  and  _424
REMARK  179  A    between atoms: _426  and  _428
REMARK  180  A    between atoms: _428  and  _429
REMARK  181  A    between atoms: _428  and  _431
REMARK  182  A    between atoms: _431  and  _432
REMARK  183  A    between atoms: _432  and  _433
REMARK  184  A    between atoms: _436  and  _438
REMARK  185  A    between atoms: _438  and  _439
REMARK  186  A    between atoms: _438  and  _441
REMARK  187  A    between atoms: _441  and  _442
REMARK  188  A    between atoms: _444  and  _446
REMARK  189  A    between atoms: _446  and  _447
REMARK  190  A    between atoms: _446  and  _449
REMARK  191  A    between atoms: _449  and  _450
REMARK  192  A    between atoms: _453  and  _455
REMARK  193  A    between atoms: _455  and  _456
REMARK  194  A    between atoms: _455  and  _458
REMARK  195  A    between atoms: _458  and  _459
REMARK  196  A    between atoms: _461  and  _463
REMARK  197  A    between atoms: _463  and  _464
REMARK  198  A    between atoms: _463  and  _466
REMARK  199  A    between atoms: _466  and  _467
REMARK  200  A    between atoms: _470  and  _472
REMARK  201  A    between atoms: _472  and  _473
REMARK  202  A    between atoms: _472  and  _475
REMARK  203  A    between atoms: _475  and  _476
REMARK  204  A    between atoms: _479  and  _481
REMARK  205  A    between atoms: _481  and  _482
REMARK  206  A    between atoms: _481  and  _484
REMARK  207  A    between atoms: _484  and  _485
REMARK  208  A    between atoms: _485  and  _486
REMARK  209  A    between atoms: _486  and  _487
REMARK  210  A    between atoms: _487  and  _488
REMARK  211  A    between atoms: _492  and  _494
REMARK  212  A    between atoms: _494  and  _495
REMARK  213  A    between atoms: _497  and  _499
REMARK  214  A    between atoms: _499  and  _500
REMARK  215  A    between atoms: _499  and  _502
REMARK  216  A    between atoms: _502  and  _503
REMARK  217  A    between atoms: _508  and  _509
REMARK  218  A    between atoms: _511  and  _513
REMARK  219  A    between atoms: _513  and  _514
REMARK  220  A    between atoms: _516  and  _518
REMARK  221  A    between atoms: _518  and  _519
REMARK  222  A    between atoms: _518  and  _521
REMARK  223  A    between atoms: _521  and  _522
REMARK                            x       y       z     vdW  Elec       q    Type
REMARK                         _______ _______ _______ _____ _____    ______ ____
ROOT
ATOM      1  O   HOH     1      44.920  63.053   9.552  0.00  0.00    +0.000 OA
ENDROOT
TORSDOF 0
REMARK  Name = ../refined-set-2016/3s2v/3s2v_pocket.pdb
REMARK  223 active torsions:
REMARK  status: ('A' for Active; 'I' for Inactive)
REMARK    1  A    between atoms: _1  and  _3
REMARK    2  A    between atoms: _3  and  _4
REMARK    3  A    between atoms: _3  and  _6
REMARK    4  A    between atoms: _6  and  _7
REMARK    5  A    between atoms: _10  and  _12
REMARK    6  A    between atoms: _12  and  _13
REMARK    7  A    between atoms: _12  and  _15
REMARK    8  A    between atoms: _15  and  _16
REMARK    9  A    between atoms: _19  and  _21
REMARK   10  A    between atoms: _21  and  _22
REMARK   11  A    between atoms: _21  and  _24
REMARK   12  A    between atoms: _24  and  _25
REMARK   13  A    between atoms: _25  and  _26
REMARK   14  A    between atoms: _29  and  _31
REMARK   15  A    between atoms: _31  and  _32
REMARK   16  A    between atoms: _31  and  _34
REMARK   17  A    between atoms: _34  and  _35
REMARK   18  A    between atoms: _35  and  _36
REMARK   19  A    between atoms: _40  and  _41
REMARK   20  A    between atoms: _46  and  _48
REMARK   21  A    between atoms: _48  and  _49
REMARK   22  A    between atoms: _48  and  _51
REMARK   23  A    between atoms: _51  and  _52
REMARK   24  A    between atoms: _57  and  _58
REMARK   25  A    between atoms: _60  and  _62
REMARK   26  A    between atoms: _62  and  _63
REMARK   27  A    between atoms: _62  and  _65
REMARK   28  A    between atoms: _68  and  _70
REMARK   29  A    between atoms: _70  and  _71
REMARK   30  A    between atoms: _70  and  _73
REMARK   31  A    between atoms: _73  and  _74
REMARK   32  A    between atoms: _74  and  _75
REMARK   33  A    between atoms: _75  and  _76
REMARK   34  A    between atoms: _76  and  _77
REMARK   35  A    between atoms: _81  and  _83
REMARK   36  A    between atoms: _83  and  _84
REMARK   37  A    between atoms: _83  and  _86
REMARK   38  A    between atoms: _86  and  _87
REMARK   39  A    between atoms: _92  and  _93
REMARK   40  A    between atoms: _95  and  _97
REMARK   41  A    between atoms: _97  and  _98
REMARK   42  A    between atoms: _100  and  _102
REMARK   43  A    between atoms: _102  and  _103
REMARK   44  A    between atoms: _106  and  _108
REMARK   45  A    between atoms: _108  and  _109
REMARK   46  A    between atoms: _108  and  _111
REMARK   47  A    between atoms: _111  and  _112
REMARK   48  A    between atoms: _112  and  _113
REMARK   49  A    between atoms: _115  and  _117
REMARK   50  A    between atoms: _117  and  _118
REMARK   51  A    between atoms: _117  and  _120
REMARK   52  A    between atoms: _123  and  _125
REMARK   53  A    between atoms: _125  and  _126
REMARK   54  A    between atoms: _130  and  _131
REMARK   55  A    between atoms: _136  and  _138
REMARK   56  A    between atoms: _138  and  _139
REMARK   57  A    between atoms: _138  and  _141
REMARK   58  A    between atoms: _141  and  _142
REMARK   59  A    between atoms: _145  and  _147
REMARK   60  A    between atoms: _147  and  _148
REMARK   61  A    between atoms: _147  and  _150
REMARK   62  A    between atoms: _150  and  _151
REMARK   63  A    between atoms: _154  and  _156
REMARK   64  A    between atoms: _156  and  _157
REMARK   65  A    between atoms: _156  and  _159
REMARK   66  A    between atoms: _159  and  _160
REMARK   67  A    between atoms: _163  and  _165
REMARK   68  A    between atoms: _165  and  _166
REMARK   69  A    between atoms: _165  and  _168
REMARK   70  A    between atoms: _168  and  _169
REMARK   71  A    between atoms: _172  and  _174
REMARK   72  A    between atoms: _174  and  _175
REMARK   73  A    between atoms: _174  and  _177
REMARK   74  A    between atoms: _177  and  _178
REMARK   75  A    between atoms: _178  and  _179
REMARK   76  A    between atoms: _179  and  _180
REMARK   77  A    between atoms: _189  and  _191
REMARK   78  A    between atoms: _191  and  _192
REMARK   79  A    between atoms: _191  and  _194
REMARK   80  A    between atoms: _194  and  _195
REMARK   81  A    between atoms: _201  and  _203
REMARK   82  A    between atoms: _203  and  _204
REMARK   83  A    between atoms: _203  and  _206
REMARK   84  A    between atoms: _206  and  _207
REMARK   85  A    between atoms: _207  and  _208
REMARK   86  A    between atoms: _210  and  _212
REMARK   87  A    between atoms: _212  and  _213
REMARK   88  A    between atoms: _212  and  _215
REMARK   89  A    between atoms: _215  and  _216
REMARK   90  A    between atoms: _219  and  _221
REMARK   91  A    between atoms: _221  and  _222
REMARK   92  A    between atoms: _224  and  _226
REMARK   93  A    between atoms: _226  and  _227
REMARK   94  A    between atoms: _226  and  _229
REMARK   95  A    between atoms: _229  and  _230
REMARK   96  A    between atoms: _233  and  _235
REMARK   97  A    between atoms: _235  and  _236
REMARK   98  A    between atoms: _235  and  _238
REMARK   99  A    between atoms: _238  and  _239
REMARK  100  A    between atoms: _241  and  _243
REMARK  101  A    between atoms: _243  and  _244
REMARK  102  A    between atoms: _246  and  _248
REMARK  103  A    between atoms: _248  and  _249
REMARK  104  A    between atoms: _252  and  _254
REMARK  105  A    between atoms: _254  and  _255
REMARK  106  A    between atoms: _254  and  _257
REMARK  107  A    between atoms: _260  and  _262
REMARK  108  A    between atoms: _262  and  _263
REMARK  109  A    between atoms: _262  and  _265
REMARK  110  A    between atoms: _265  and  _266
REMARK  111  A    between atoms: _266  and  _267
REMARK  112  A    between atoms: _267  and  _268
REMARK  113  A    between atoms: _277  and  _279
REMARK  114  A    between atoms: _279  and  _280
REMARK  115  A    between atoms: _279  and  _282
REMARK  116  A    between atoms: _282  and  _283
REMARK  117  A    between atoms: _286  and  _288
REMARK  118  A    between atoms: _288  and  _289
REMARK  119  A    between atoms: _291  and  _293
REMARK  120  A    between atoms: _293  and  _294
REMARK  121  A    between atoms: _293  and  _296
REMARK  122  A    between atoms: _296  and  _297
REMARK  123  A    between atoms: _299  and  _301
REMARK  124  A    between atoms: _301  and  _302
REMARK  125  A    between atoms: _301  and  _304
REMARK  126  A    between atoms: _304  and  _305
REMARK  127  A    between atoms: _308  and  _310
REMARK  128  A    between atoms: _310  and  _311
REMARK  129  A    between atoms: _310  and  _313
REMARK  130  A    between atoms: _313  and  _314
REMARK  131  A    between atoms: _314  and  _315
REMARK  132  A    between atoms: _317  and  _319
REMARK  133  A    between atoms: _319  and  _320
REMARK  134  A    between atoms: _319  and  _322
REMARK  135  A    between atoms: _322  and  _323
REMARK  136  A    between atoms: _326  and  _328
REMARK  137  A    between atoms: _328  and  _329
REMARK  138  A    between atoms: _328  and  _331
REMARK  139  A    between atoms: _331  and  _332
REMARK  140  A    between atoms: _338  and  _340
REMARK  141  A    between atoms: _340  and  _341
REMARK  142  A    between atoms: _340  and  _343
REMARK  143  A    between atoms: _343  and  _344
REMARK  144  A    between atoms: _350  and  _352
REMARK  145  A    between atoms: _352  and  _353
REMARK  146  A    between atoms: _352  and  _355
REMARK  147  A    between atoms: _358  and  _360
REMARK  148  A    between atoms: _360  and  _361
REMARK  149  A    between atoms: _360  and  _363
REMARK  150  A    between atoms: _363  and  _364
REMARK  151  A    between atoms: _364  and  _365
REMARK  152  A    between atoms: _365  and  _366
REMARK  153  A    between atoms: _366  and  _367
REMARK  154  A    between atoms: _371  and  _373
REMARK  155  A    between atoms: _373  and  _374
REMARK  156  A    between atoms: _373  and  _376
REMARK  157  A    between atoms: _376  and  _377
REMARK  158  A    between atoms: _382  and  _384
REMARK  159  A    between atoms: _384  and  _385
REMARK  160  A    between atoms: _384  and  _387
REMARK  161  A    between atoms: _387  and  _388
REMARK  162  A    between atoms: _390  and  _392
REMARK  163  A    between atoms: _392  and  _393
REMARK  164  A    between atoms: _392  and  _395
REMARK  165  A    between atoms: _395  and  _396
REMARK  166  A    between atoms: _399  and  _401
REMARK  167  A    between atoms: _401  and  _402
REMARK  168  A    between atoms: _401  and  _404
REMARK  169  A    between atoms: _404  and  _405
REMARK  170  A    between atoms: _408  and  _410
REMARK  171  A    between atoms: _410  and  _411
REMARK  172  A    between atoms: _410  and  _413
REMARK  173  A    between atoms: _413  and  _414
REMARK  174  A    between atoms: _417  and  _419
REMARK  175  A    between atoms: _419  and  _420
REMARK  176  A    between atoms: _419  and  _422
REMARK  177  A    between atoms: _422  and  _423
REMARK  178  A    between atoms: _423  and  _424
REMARK  179  A    between atoms: _426  and  _428
REMARK  180  A    between atoms: _428  and  _429
REMARK  181  A    between atoms: _428  and  _431
REMARK  182  A    between atoms: _431  and  _432
REMARK  183  A    between atoms: _432  and  _433
REMARK  184  A    between atoms: _436  and  _438
REMARK  185  A    between atoms: _438  and  _439
REMARK  186  A    between atoms: _438  and  _441
REMARK  187  A    between atoms: _441  and  _442
REMARK  188  A    between atoms: _444  and  _446
REMARK  189  A    between atoms: _446  and  _447
REMARK  190  A    between atoms: _446  and  _449
REMARK  191  A    between atoms: _449  and  _450
REMARK  192  A    between atoms: _453  and  _455
REMARK  193  A    between atoms: _455  and  _456
REMARK  194  A    between atoms: _455  and  _458
REMARK  195  A    between atoms: _458  and  _459
REMARK  196  A    between atoms: _461  and  _463
REMARK  197  A    between atoms: _463  and  _464
REMARK  198  A    between atoms: _463  and  _466
REMARK  199  A    between atoms: _466  and  _467
REMARK  200  A    between atoms: _470  and  _472
REMARK  201  A    between atoms: _472  and  _473
REMARK  202  A    between atoms: _472  and  _475
REMARK  203  A    between atoms: _475  and  _476
REMARK  204  A    between atoms: _479  and  _481
REMARK  205  A    between atoms: _481  and  _482
REMARK  206  A    between atoms: _481  and  _484
REMARK  207  A    between atoms: _484  and  _485
REMARK  208  A    between atoms: _485  and  _486
REMARK  209  A    between atoms: _486  and  _487
REMARK  210  A    between atoms: _487  and  _488
REMARK  211  A    between atoms: _492  and  _494
REMARK  212  A    between atoms: _494  and  _495
REMARK  213  A    between atoms: _497  and  _499
REMARK  214  A    between atoms: _499  and  _500
REMARK  215  A    between atoms: _499  and  _502
REMARK  216  A    between atoms: _502  and  _503
REMARK  217  A    between atoms: _508  and  _509
REMARK  218  A    between atoms: _511  and  _513
REMARK  219  A    between atoms: _513  and  _514
REMARK  220  A    between atoms: _516  and  _518
REMARK  221  A    between atoms: _518  and  _519
REMARK  222  A    between atoms: _518  and  _521
REMARK  223  A    between atoms: _521  and  _522
REMARK                            x       y       z     vdW  Elec       q    Type
REMARK                         _______ _______ _______ _____ _____    ______ ____
ROOT
ATOM      1  O   HOH     1      44.723  64.973   6.456  0.00  0.00    +0.000 OA
ENDROOT
TORSDOF 0
REMARK  Name = ../refined-set-2016/3s2v/3s2v_pocket.pdb
REMARK  223 active torsions:
REMARK  status: ('A' for Active; 'I' for Inactive)
REMARK    1  A    between atoms: _1  and  _3
REMARK    2  A    between atoms: _3  and  _4
REMARK    3  A    between atoms: _3  and  _6
REMARK    4  A    between atoms: _6  and  _7
REMARK    5  A    between atoms: _10  and  _12
REMARK    6  A    between atoms: _12  and  _13
REMARK    7  A    between atoms: _12  and  _15
REMARK    8  A    between atoms: _15  and  _16
REMARK    9  A    between atoms: _19  and  _21
REMARK   10  A    between atoms: _21  and  _22
REMARK   11  A    between atoms: _21  and  _24
REMARK   12  A    between atoms: _24  and  _25
REMARK   13  A    between atoms: _25  and  _26
REMARK   14  A    between atoms: _29  and  _31
REMARK   15  A    between atoms: _31  and  _32
REMARK   16  A    between atoms: _31  and  _34
REMARK   17  A    between atoms: _34  and  _35
REMARK   18  A    between atoms: _35  and  _36
REMARK   19  A    between atoms: _40  and  _41
REMARK   20  A    between atoms: _46  and  _48
REMARK   21  A    between atoms: _48  and  _49
REMARK   22  A    between atoms: _48  and  _51
REMARK   23  A    between atoms: _51  and  _52
REMARK   24  A    between atoms: _57  and  _58
REMARK   25  A    between atoms: _60  and  _62
REMARK   26  A    between atoms: _62  and  _63
REMARK   27  A    between atoms: _62  and  _65
REMARK   28  A    between atoms: _68  and  _70
REMARK   29  A    between atoms: _70  and  _71
REMARK   30  A    between atoms: _70  and  _73
REMARK   31  A    between atoms: _73  and  _74
REMARK   32  A    between atoms: _74  and  _75
REMARK   33  A    between atoms: _75  and  _76
REMARK   34  A    between atoms: _76  and  _77
REMARK   35  A    between atoms: _81  and  _83
REMARK   36  A    between atoms: _83  and  _84
REMARK   37  A    between atoms: _83  and  _86
REMARK   38  A    between atoms: _86  and  _87
REMARK   39  A    between atoms: _92  and  _93
REMARK   40  A    between atoms: _95  and  _97
REMARK   41  A    between atoms: _97  and  _98
REMARK   42  A    between atoms: _100  and  _102
REMARK   43  A    between atoms: _102  and  _103
REMARK   44  A    between atoms: _106  and  _108
REMARK   45  A    between atoms: _108  and  _109
REMARK   46  A    between atoms: _108  and  _111
REMARK   47  A    between atoms: _111  and  _112
REMARK   48  A    between atoms: _112  and  _113
REMARK   49  A    between atoms: _115  and  _117
REMARK   50  A    between atoms: _117  and  _118
REMARK   51  A    between atoms: _117  and  _120
REMARK   52  A    between atoms: _123  and  _125
REMARK   53  A    between atoms: _125  and  _126
REMARK   54  A    between atoms: _130  and  _131
REMARK   55  A    between atoms: _136  and  _138
REMARK   56  A    between atoms: _138  and  _139
REMARK   57  A    between atoms: _138  and  _141
REMARK   58  A    between atoms: _141  and  _142
REMARK   59  A    between atoms: _145  and  _147
REMARK   60  A    between atoms: _147  and  _148
REMARK   61  A    between atoms: _147  and  _150
REMARK   62  A    between atoms: _150  and  _151
REMARK   63  A    between atoms: _154  and  _156
REMARK   64  A    between atoms: _156  and  _157
REMARK   65  A    between atoms: _156  and  _159
REMARK   66  A    between atoms: _159  and  _160
REMARK   67  A    between atoms: _163  and  _165
REMARK   68  A    between atoms: _165  and  _166
REMARK   69  A    between atoms: _165  and  _168
REMARK   70  A    between atoms: _168  and  _169
REMARK   71  A    between atoms: _172  and  _174
REMARK   72  A    between atoms: _174  and  _175
REMARK   73  A    between atoms: _174  and  _177
REMARK   74  A    between atoms: _177  and  _178
REMARK   75  A    between atoms: _178  and  _179
REMARK   76  A    between atoms: _179  and  _180
REMARK   77  A    between atoms: _189  and  _191
REMARK   78  A    between atoms: _191  and  _192
REMARK   79  A    between atoms: _191  and  _194
REMARK   80  A    between atoms: _194  and  _195
REMARK   81  A    between atoms: _201  and  _203
REMARK   82  A    between atoms: _203  and  _204
REMARK   83  A    between atoms: _203  and  _206
REMARK   84  A    between atoms: _206  and  _207
REMARK   85  A    between atoms: _207  and  _208
REMARK   86  A    between atoms: _210  and  _212
REMARK   87  A    between atoms: _212  and  _213
REMARK   88  A    between atoms: _212  and  _215
REMARK   89  A    between atoms: _215  and  _216
REMARK   90  A    between atoms: _219  and  _221
REMARK   91  A    between atoms: _221  and  _222
REMARK   92  A    between atoms: _224  and  _226
REMARK   93  A    between atoms: _226  and  _227
REMARK   94  A    between atoms: _226  and  _229
REMARK   95  A    between atoms: _229  and  _230
REMARK   96  A    between atoms: _233  and  _235
REMARK   97  A    between atoms: _235  and  _236
REMARK   98  A    between atoms: _235  and  _238
REMARK   99  A    between atoms: _238  and  _239
REMARK  100  A    between atoms: _241  and  _243
REMARK  101  A    between atoms: _243  and  _244
REMARK  102  A    between atoms: _246  and  _248
REMARK  103  A    between atoms: _248  and  _249
REMARK  104  A    between atoms: _252  and  _254
REMARK  105  A    between atoms: _254  and  _255
REMARK  106  A    between atoms: _254  and  _257
REMARK  107  A    between atoms: _260  and  _262
REMARK  108  A    between atoms: _262  and  _263
REMARK  109  A    between atoms: _262  and  _265
REMARK  110  A    between atoms: _265  and  _266
REMARK  111  A    between atoms: _266  and  _267
REMARK  112  A    between atoms: _267  and  _268
REMARK  113  A    between atoms: _277  and  _279
REMARK  114  A    between atoms: _279  and  _280
REMARK  115  A    between atoms: _279  and  _282
REMARK  116  A    between atoms: _282  and  _283
REMARK  117  A    between atoms: _286  and  _288
REMARK  118  A    between atoms: _288  and  _289
REMARK  119  A    between atoms: _291  and  _293
REMARK  120  A    between atoms: _293  and  _294
REMARK  121  A    between atoms: _293  and  _296
REMARK  122  A    between atoms: _296  and  _297
REMARK  123  A    between atoms: _299  and  _301
REMARK  124  A    between atoms: _301  and  _302
REMARK  125  A    between atoms: _301  and  _304
REMARK  126  A    between atoms: _304  and  _305
REMARK  127  A    between atoms: _308  and  _310
REMARK  128  A    between atoms: _310  and  _311
REMARK  129  A    between atoms: _310  and  _313
REMARK  130  A    between atoms: _313  and  _314
REMARK  131  A    between atoms: _314  and  _315
REMARK  132  A    between atoms: _317  and  _319
REMARK  133  A    between atoms: _319  and  _320
REMARK  134  A    between atoms: _319  and  _322
REMARK  135  A    between atoms: _322  and  _323
REMARK  136  A    between atoms: _326  and  _328
REMARK  137  A    between atoms: _328  and  _329
REMARK  138  A    between atoms: _328  and  _331
REMARK  139  A    between atoms: _331  and  _332
REMARK  140  A    between atoms: _338  and  _340
REMARK  141  A    between atoms: _340  and  _341
REMARK  142  A    between atoms: _340  and  _343
REMARK  143  A    between atoms: _343  and  _344
REMARK  144  A    between atoms: _350  and  _352
REMARK  145  A    between atoms: _352  and  _353
REMARK  146  A    between atoms: _352  and  _355
REMARK  147  A    between atoms: _358  and  _360
REMARK  148  A    between atoms: _360  and  _361
REMARK  149  A    between atoms: _360  and  _363
REMARK  150  A    between atoms: _363  and  _364
REMARK  151  A    between atoms: _364  and  _365
REMARK  152  A    between atoms: _365  and  _366
REMARK  153  A    between atoms: _366  and  _367
REMARK  154  A    between atoms: _371  and  _373
REMARK  155  A    between atoms: _373  and  _374
REMARK  156  A    between atoms: _373  and  _376
REMARK  157  A    between atoms: _376  and  _377
REMARK  158  A    between atoms: _382  and  _384
REMARK  159  A    between atoms: _384  and  _385
REMARK  160  A    between atoms: _384  and  _387
REMARK  161  A    between atoms: _387  and  _388
REMARK  162  A    between atoms: _390  and  _392
REMARK  163  A    between atoms: _392  and  _393
REMARK  164  A    between atoms: _392  and  _395
REMARK  165  A    between atoms: _395  and  _396
REMARK  166  A    between atoms: _399  and  _401
REMARK  167  A    between atoms: _401  and  _402
REMARK  168  A    between atoms: _401  and  _404
REMARK  169  A    between atoms: _404  and  _405
REMARK  170  A    between atoms: _408  and  _410
REMARK  171  A    between atoms: _410  and  _411
REMARK  172  A    between atoms: _410  and  _413
REMARK  173  A    between atoms: _413  and  _414
REMARK  174  A    between atoms: _417  and  _419
REMARK  175  A    between atoms: _419  and  _420
REMARK  176  A    between atoms: _419  and  _422
REMARK  177  A    between atoms: _422  and  _423
REMARK  178  A    between atoms: _423  and  _424
REMARK  179  A    between atoms: _426  and  _428
REMARK  180  A    between atoms: _428  and  _429
REMARK  181  A    between atoms: _428  and  _431
REMARK  182  A    between atoms: _431  and  _432
REMARK  183  A    between atoms: _432  and  _433
REMARK  184  A    between atoms: _436  and  _438
REMARK  185  A    between atoms: _438  and  _439
REMARK  186  A    between atoms: _438  and  _441
REMARK  187  A    between atoms: _441  and  _442
REMARK  188  A    between atoms: _444  and  _446
REMARK  189  A    between atoms: _446  and  _447
REMARK  190  A    between atoms: _446  and  _449
REMARK  191  A    between atoms: _449  and  _450
REMARK  192  A    between atoms: _453  and  _455
REMARK  193  A    between atoms: _455  and  _456
REMARK  194  A    between atoms: _455  and  _458
REMARK  195  A    between atoms: _458  and  _459
REMARK  196  A    between atoms: _461  and  _463
REMARK  197  A    between atoms: _463  and  _464
REMARK  198  A    between atoms: _463  and  _466
REMARK  199  A    between atoms: _466  and  _467
REMARK  200  A    between atoms: _470  and  _472
REMARK  201  A    between atoms: _472  and  _473
REMARK  202  A    between atoms: _472  and  _475
REMARK  203  A    between atoms: _475  and  _476
REMARK  204  A    between atoms: _479  and  _481
REMARK  205  A    between atoms: _481  and  _482
REMARK  206  A    between atoms: _481  and  _484
REMARK  207  A    between atoms: _484  and  _485
REMARK  208  A    between atoms: _485  and  _486
REMARK  209  A    between atoms: _486  and  _487
REMARK  210  A    between atoms: _487  and  _488
REMARK  211  A    between atoms: _492  and  _494
REMARK  212  A    between atoms: _494  and  _495
REMARK  213  A    between atoms: _497  and  _499
REMARK  214  A    between atoms: _499  and  _500
REMARK  215  A    between atoms: _499  and  _502
REMARK  216  A    between atoms: _502  and  _503
REMARK  217  A    between atoms: _508  and  _509
REMARK  218  A    between atoms: _511  and  _513
REMARK  219  A    between atoms: _513  and  _514
REMARK  220  A    between atoms: _516  and  _518
REMARK  221  A    between atoms: _518  and  _519
REMARK  222  A    between atoms: _518  and  _521
REMARK  223  A    between atoms: _521  and  _522
REMARK                            x       y       z     vdW  Elec       q    Type
REMARK                         _______ _______ _______ _____ _____    ______ ____
ROOT
ATOM      1  O   HOH     1      44.351  65.584   8.804  0.00  0.00    +0.000 OA
ENDROOT
TORSDOF 0
REMARK  Name = ../refined-set-2016/3s2v/3s2v_pocket.pdb
REMARK  223 active torsions:
REMARK  status: ('A' for Active; 'I' for Inactive)
REMARK    1  A    between atoms: _1  and  _3
REMARK    2  A    between atoms: _3  and  _4
REMARK    3  A    between atoms: _3  and  _6
REMARK    4  A    between atoms: _6  and  _7
REMARK    5  A    between atoms: _10  and  _12
REMARK    6  A    between atoms: _12  and  _13
REMARK    7  A    between atoms: _12  and  _15
REMARK    8  A    between atoms: _15  and  _16
REMARK    9  A    between atoms: _19  and  _21
REMARK   10  A    between atoms: _21  and  _22
REMARK   11  A    between atoms: _21  and  _24
REMARK   12  A    between atoms: _24  and  _25
REMARK   13  A    between atoms: _25  and  _26
REMARK   14  A    between atoms: _29  and  _31
REMARK   15  A    between atoms: _31  and  _32
REMARK   16  A    between atoms: _31  and  _34
REMARK   17  A    between atoms: _34  and  _35
REMARK   18  A    between atoms: _35  and  _36
REMARK   19  A    between atoms: _40  and  _41
REMARK   20  A    between atoms: _46  and  _48
REMARK   21  A    between atoms: _48  and  _49
REMARK   22  A    between atoms: _48  and  _51
REMARK   23  A    between atoms: _51  and  _52
REMARK   24  A    between atoms: _57  and  _58
REMARK   25  A    between atoms: _60  and  _62
REMARK   26  A    between atoms: _62  and  _63
REMARK   27  A    between atoms: _62  and  _65
REMARK   28  A    between atoms: _68  and  _70
REMARK   29  A    between atoms: _70  and  _71
REMARK   30  A    between atoms: _70  and  _73
REMARK   31  A    between atoms: _73  and  _74
REMARK   32  A    between atoms: _74  and  _75
REMARK   33  A    between atoms: _75  and  _76
REMARK   34  A    between atoms: _76  and  _77
REMARK   35  A    between atoms: _81  and  _83
REMARK   36  A    between atoms: _83  and  _84
REMARK   37  A    between atoms: _83  and  _86
REMARK   38  A    between atoms: _86  and  _87
REMARK   39  A    between atoms: _92  and  _93
REMARK   40  A    between atoms: _95  and  _97
REMARK   41  A    between atoms: _97  and  _98
REMARK   42  A    between atoms: _100  and  _102
REMARK   43  A    between atoms: _102  and  _103
REMARK   44  A    between atoms: _106  and  _108
REMARK   45  A    between atoms: _108  and  _109
REMARK   46  A    between atoms: _108  and  _111
REMARK   47  A    between atoms: _111  and  _112
REMARK   48  A    between atoms: _112  and  _113
REMARK   49  A    between atoms: _115  and  _117
REMARK   50  A    between atoms: _117  and  _118
REMARK   51  A    between atoms: _117  and  _120
REMARK   52  A    between atoms: _123  and  _125
REMARK   53  A    between atoms: _125  and  _126
REMARK   54  A    between atoms: _130  and  _131
REMARK   55  A    between atoms: _136  and  _138
REMARK   56  A    between atoms: _138  and  _139
REMARK   57  A    between atoms: _138  and  _141
REMARK   58  A    between atoms: _141  and  _142
REMARK   59  A    between atoms: _145  and  _147
REMARK   60  A    between atoms: _147  and  _148
REMARK   61  A    between atoms: _147  and  _150
REMARK   62  A    between atoms: _150  and  _151
REMARK   63  A    between atoms: _154  and  _156
REMARK   64  A    between atoms: _156  and  _157
REMARK   65  A    between atoms: _156  and  _159
REMARK   66  A    between atoms: _159  and  _160
REMARK   67  A    between atoms: _163  and  _165
REMARK   68  A    between atoms: _165  and  _166
REMARK   69  A    between atoms: _165  and  _168
REMARK   70  A    between atoms: _168  and  _169
REMARK   71  A    between atoms: _172  and  _174
REMARK   72  A    between atoms: _174  and  _175
REMARK   73  A    between atoms: _174  and  _177
REMARK   74  A    between atoms: _177  and  _178
REMARK   75  A    between atoms: _178  and  _179
REMARK   76  A    between atoms: _179  and  _180
REMARK   77  A    between atoms: _189  and  _191
REMARK   78  A    between atoms: _191  and  _192
REMARK   79  A    between atoms: _191  and  _194
REMARK   80  A    between atoms: _194  and  _195
REMARK   81  A    between atoms: _201  and  _203
REMARK   82  A    between atoms: _203  and  _204
REMARK   83  A    between atoms: _203  and  _206
REMARK   84  A    between atoms: _206  and  _207
REMARK   85  A    between atoms: _207  and  _208
REMARK   86  A    between atoms: _210  and  _212
REMARK   87  A    between atoms: _212  and  _213
REMARK   88  A    between atoms: _212  and  _215
REMARK   89  A    between atoms: _215  and  _216
REMARK   90  A    between atoms: _219  and  _221
REMARK   91  A    between atoms: _221  and  _222
REMARK   92  A    between atoms: _224  and  _226
REMARK   93  A    between atoms: _226  and  _227
REMARK   94  A    between atoms: _226  and  _229
REMARK   95  A    between atoms: _229  and  _230
REMARK   96  A    between atoms: _233  and  _235
REMARK   97  A    between atoms: _235  and  _236
REMARK   98  A    between atoms: _235  and  _238
REMARK   99  A    between atoms: _238  and  _239
REMARK  100  A    between atoms: _241  and  _243
REMARK  101  A    between atoms: _243  and  _244
REMARK  102  A    between atoms: _246  and  _248
REMARK  103  A    between atoms: _248  and  _249
REMARK  104  A    between atoms: _252  and  _254
REMARK  105  A    between atoms: _254  and  _255
REMARK  106  A    between atoms: _254  and  _257
REMARK  107  A    between atoms: _260  and  _262
REMARK  108  A    between atoms: _262  and  _263
REMARK  109  A    between atoms: _262  and  _265
REMARK  110  A    between atoms: _265  and  _266
REMARK  111  A    between atoms: _266  and  _267
REMARK  112  A    between atoms: _267  and  _268
REMARK  113  A    between atoms: _277  and  _279
REMARK  114  A    between atoms: _279  and  _280
REMARK  115  A    between atoms: _279  and  _282
REMARK  116  A    between atoms: _282  and  _283
REMARK  117  A    between atoms: _286  and  _288
REMARK  118  A    between atoms: _288  and  _289
REMARK  119  A    between atoms: _291  and  _293
REMARK  120  A    between atoms: _293  and  _294
REMARK  121  A    between atoms: _293  and  _296
REMARK  122  A    between atoms: _296  and  _297
REMARK  123  A    between atoms: _299  and  _301
REMARK  124  A    between atoms: _301  and  _302
REMARK  125  A    between atoms: _301  and  _304
REMARK  126  A    between atoms: _304  and  _305
REMARK  127  A    between atoms: _308  and  _310
REMARK  128  A    between atoms: _310  and  _311
REMARK  129  A    between atoms: _310  and  _313
REMARK  130  A    between atoms: _313  and  _314
REMARK  131  A    between atoms: _314  and  _315
REMARK  132  A    between atoms: _317  and  _319
REMARK  133  A    between atoms: _319  and  _320
REMARK  134  A    between atoms: _319  and  _322
REMARK  135  A    between atoms: _322  and  _323
REMARK  136  A    between atoms: _326  and  _328
REMARK  137  A    between atoms: _328  and  _329
REMARK  138  A    between atoms: _328  and  _331
REMARK  139  A    between atoms: _331  and  _332
REMARK  140  A    between atoms: _338  and  _340
REMARK  141  A    between atoms: _340  and  _341
REMARK  142  A    between atoms: _340  and  _343
REMARK  143  A    between atoms: _343  and  _344
REMARK  144  A    between atoms: _350  and  _352
REMARK  145  A    between atoms: _352  and  _353
REMARK  146  A    between atoms: _352  and  _355
REMARK  147  A    between atoms: _358  and  _360
REMARK  148  A    between atoms: _360  and  _361
REMARK  149  A    between atoms: _360  and  _363
REMARK  150  A    between atoms: _363  and  _364
REMARK  151  A    between atoms: _364  and  _365
REMARK  152  A    between atoms: _365  and  _366
REMARK  153  A    between atoms: _366  and  _367
REMARK  154  A    between atoms: _371  and  _373
REMARK  155  A    between atoms: _373  and  _374
REMARK  156  A    between atoms: _373  and  _376
REMARK  157  A    between atoms: _376  and  _377
REMARK  158  A    between atoms: _382  and  _384
REMARK  159  A    between atoms: _384  and  _385
REMARK  160  A    between atoms: _384  and  _387
REMARK  161  A    between atoms: _387  and  _388
REMARK  162  A    between atoms: _390  and  _392
REMARK  163  A    between atoms: _392  and  _393
REMARK  164  A    between atoms: _392  and  _395
REMARK  165  A    between atoms: _395  and  _396
REMARK  166  A    between atoms: _399  and  _401
REMARK  167  A    between atoms: _401  and  _402
REMARK  168  A    between atoms: _401  and  _404
REMARK  169  A    between atoms: _404  and  _405
REMARK  170  A    between atoms: _408  and  _410
REMARK  171  A    between atoms: _410  and  _411
REMARK  172  A    between atoms: _410  and  _413
REMARK  173  A    between atoms: _413  and  _414
REMARK  174  A    between atoms: _417  and  _419
REMARK  175  A    between atoms: _419  and  _420
REMARK  176  A    between atoms: _419  and  _422
REMARK  177  A    between atoms: _422  and  _423
REMARK  178  A    between atoms: _423  and  _424
REMARK  179  A    between atoms: _426  and  _428
REMARK  180  A    between atoms: _428  and  _429
REMARK  181  A    between atoms: _428  and  _431
REMARK  182  A    between atoms: _431  and  _432
REMARK  183  A    between atoms: _432  and  _433
REMARK  184  A    between atoms: _436  and  _438
REMARK  185  A    between atoms: _438  and  _439
REMARK  186  A    between atoms: _438  and  _441
REMARK  187  A    between atoms: _441  and  _442
REMARK  188  A    between atoms: _444  and  _446
REMARK  189  A    between atoms: _446  and  _447
REMARK  190  A    between atoms: _446  and  _449
REMARK  191  A    between atoms: _449  and  _450
REMARK  192  A    between atoms: _453  and  _455
REMARK  193  A    between atoms: _455  and  _456
REMARK  194  A    between atoms: _455  and  _458
REMARK  195  A    between atoms: _458  and  _459
REMARK  196  A    between atoms: _461  and  _463
REMARK  197  A    between atoms: _463  and  _464
REMARK  198  A    between atoms: _463  and  _466
REMARK  199  A    between atoms: _466  and  _467
REMARK  200  A    between atoms: _470  and  _472
REMARK  201  A    between atoms: _472  and  _473
REMARK  202  A    between atoms: _472  and  _475
REMARK  203  A    between atoms: _475  and  _476
REMARK  204  A    between atoms: _479  and  _481
REMARK  205  A    between atoms: _481  and  _482
REMARK  206  A    between atoms: _481  and  _484
REMARK  207  A    between atoms: _484  and  _485
REMARK  208  A    between atoms: _485  and  _486
REMARK  209  A    between atoms: _486  and  _487
REMARK  210  A    between atoms: _487  and  _488
REMARK  211  A    between atoms: _492  and  _494
REMARK  212  A    between atoms: _494  and  _495
REMARK  213  A    between atoms: _497  and  _499
REMARK  214  A    between atoms: _499  and  _500
REMARK  215  A    between atoms: _499  and  _502
REMARK  216  A    between atoms: _502  and  _503
REMARK  217  A    between atoms: _508  and  _509
REMARK  218  A    between atoms: _511  and  _513
REMARK  219  A    between atoms: _513  and  _514
REMARK  220  A    between atoms: _516  and  _518
REMARK  221  A    between atoms: _518  and  _519
REMARK  222  A    between atoms: _518  and  _521
REMARK  223  A    between atoms: _521  and  _522
REMARK                            x       y       z     vdW  Elec       q    Type
REMARK                         _______ _______ _______ _____ _____    ______ ____
ROOT
ATOM      1  O   HOH     1      49.652  61.694   5.964  0.00  0.00    +0.000 OA
ENDROOT
TORSDOF 0
REMARK  Name = ../refined-set-2016/3s2v/3s2v_pocket.pdb
REMARK  223 active torsions:
REMARK  status: ('A' for Active; 'I' for Inactive)
REMARK    1  A    between atoms: _1  and  _3
REMARK    2  A    between atoms: _3  and  _4
REMARK    3  A    between atoms: _3  and  _6
REMARK    4  A    between atoms: _6  and  _7
REMARK    5  A    between atoms: _10  and  _12
REMARK    6  A    between atoms: _12  and  _13
REMARK    7  A    between atoms: _12  and  _15
REMARK    8  A    between atoms: _15  and  _16
REMARK    9  A    between atoms: _19  and  _21
REMARK   10  A    between atoms: _21  and  _22
REMARK   11  A    between atoms: _21  and  _24
REMARK   12  A    between atoms: _24  and  _25
REMARK   13  A    between atoms: _25  and  _26
REMARK   14  A    between atoms: _29  and  _31
REMARK   15  A    between atoms: _31  and  _32
REMARK   16  A    between atoms: _31  and  _34
REMARK   17  A    between atoms: _34  and  _35
REMARK   18  A    between atoms: _35  and  _36
REMARK   19  A    between atoms: _40  and  _41
REMARK   20  A    between atoms: _46  and  _48
REMARK   21  A    between atoms: _48  and  _49
REMARK   22  A    between atoms: _48  and  _51
REMARK   23  A    between atoms: _51  and  _52
REMARK   24  A    between atoms: _57  and  _58
REMARK   25  A    between atoms: _60  and  _62
REMARK   26  A    between atoms: _62  and  _63
REMARK   27  A    between atoms: _62  and  _65
REMARK   28  A    between atoms: _68  and  _70
REMARK   29  A    between atoms: _70  and  _71
REMARK   30  A    between atoms: _70  and  _73
REMARK   31  A    between atoms: _73  and  _74
REMARK   32  A    between atoms: _74  and  _75
REMARK   33  A    between atoms: _75  and  _76
REMARK   34  A    between atoms: _76  and  _77
REMARK   35  A    between atoms: _81  and  _83
REMARK   36  A    between atoms: _83  and  _84
REMARK   37  A    between atoms: _83  and  _86
REMARK   38  A    between atoms: _86  and  _87
REMARK   39  A    between atoms: _92  and  _93
REMARK   40  A    between atoms: _95  and  _97
REMARK   41  A    between atoms: _97  and  _98
REMARK   42  A    between atoms: _100  and  _102
REMARK   43  A    between atoms: _102  and  _103
REMARK   44  A    between atoms: _106  and  _108
REMARK   45  A    between atoms: _108  and  _109
REMARK   46  A    between atoms: _108  and  _111
REMARK   47  A    between atoms: _111  and  _112
REMARK   48  A    between atoms: _112  and  _113
REMARK   49  A    between atoms: _115  and  _117
REMARK   50  A    between atoms: _117  and  _118
REMARK   51  A    between atoms: _117  and  _120
REMARK   52  A    between atoms: _123  and  _125
REMARK   53  A    between atoms: _125  and  _126
REMARK   54  A    between atoms: _130  and  _131
REMARK   55  A    between atoms: _136  and  _138
REMARK   56  A    between atoms: _138  and  _139
REMARK   57  A    between atoms: _138  and  _141
REMARK   58  A    between atoms: _141  and  _142
REMARK   59  A    between atoms: _145  and  _147
REMARK   60  A    between atoms: _147  and  _148
REMARK   61  A    between atoms: _147  and  _150
REMARK   62  A    between atoms: _150  and  _151
REMARK   63  A    between atoms: _154  and  _156
REMARK   64  A    between atoms: _156  and  _157
REMARK   65  A    between atoms: _156  and  _159
REMARK   66  A    between atoms: _159  and  _160
REMARK   67  A    between atoms: _163  and  _165
REMARK   68  A    between atoms: _165  and  _166
REMARK   69  A    between atoms: _165  and  _168
REMARK   70  A    between atoms: _168  and  _169
REMARK   71  A    between atoms: _172  and  _174
REMARK   72  A    between atoms: _174  and  _175
REMARK   73  A    between atoms: _174  and  _177
REMARK   74  A    between atoms: _177  and  _178
REMARK   75  A    between atoms: _178  and  _179
REMARK   76  A    between atoms: _179  and  _180
REMARK   77  A    between atoms: _189  and  _191
REMARK   78  A    between atoms: _191  and  _192
REMARK   79  A    between atoms: _191  and  _194
REMARK   80  A    between atoms: _194  and  _195
REMARK   81  A    between atoms: _201  and  _203
REMARK   82  A    between atoms: _203  and  _204
REMARK   83  A    between atoms: _203  and  _206
REMARK   84  A    between atoms: _206  and  _207
REMARK   85  A    between atoms: _207  and  _208
REMARK   86  A    between atoms: _210  and  _212
REMARK   87  A    between atoms: _212  and  _213
REMARK   88  A    between atoms: _212  and  _215
REMARK   89  A    between atoms: _215  and  _216
REMARK   90  A    between atoms: _219  and  _221
REMARK   91  A    between atoms: _221  and  _222
REMARK   92  A    between atoms: _224  and  _226
REMARK   93  A    between atoms: _226  and  _227
REMARK   94  A    between atoms: _226  and  _229
REMARK   95  A    between atoms: _229  and  _230
REMARK   96  A    between atoms: _233  and  _235
REMARK   97  A    between atoms: _235  and  _236
REMARK   98  A    between atoms: _235  and  _238
REMARK   99  A    between atoms: _238  and  _239
REMARK  100  A    between atoms: _241  and  _243
REMARK  101  A    between atoms: _243  and  _244
REMARK  102  A    between atoms: _246  and  _248
REMARK  103  A    between atoms: _248  and  _249
REMARK  104  A    between atoms: _252  and  _254
REMARK  105  A    between atoms: _254  and  _255
REMARK  106  A    between atoms: _254  and  _257
REMARK  107  A    between atoms: _260  and  _262
REMARK  108  A    between atoms: _262  and  _263
REMARK  109  A    between atoms: _262  and  _265
REMARK  110  A    between atoms: _265  and  _266
REMARK  111  A    between atoms: _266  and  _267
REMARK  112  A    between atoms: _267  and  _268
REMARK  113  A    between atoms: _277  and  _279
REMARK  114  A    between atoms: _279  and  _280
REMARK  115  A    between atoms: _279  and  _282
REMARK  116  A    between atoms: _282  and  _283
REMARK  117  A    between atoms: _286  and  _288
REMARK  118  A    between atoms: _288  and  _289
REMARK  119  A    between atoms: _291  and  _293
REMARK  120  A    between atoms: _293  and  _294
REMARK  121  A    between atoms: _293  and  _296
REMARK  122  A    between atoms: _296  and  _297
REMARK  123  A    between atoms: _299  and  _301
REMARK  124  A    between atoms: _301  and  _302
REMARK  125  A    between atoms: _301  and  _304
REMARK  126  A    between atoms: _304  and  _305
REMARK  127  A    between atoms: _308  and  _310
REMARK  128  A    between atoms: _310  and  _311
REMARK  129  A    between atoms: _310  and  _313
REMARK  130  A    between atoms: _313  and  _314
REMARK  131  A    between atoms: _314  and  _315
REMARK  132  A    between atoms: _317  and  _319
REMARK  133  A    between atoms: _319  and  _320
REMARK  134  A    between atoms: _319  and  _322
REMARK  135  A    between atoms: _322  and  _323
REMARK  136  A    between atoms: _326  and  _328
REMARK  137  A    between atoms: _328  and  _329
REMARK  138  A    between atoms: _328  and  _331
REMARK  139  A    between atoms: _331  and  _332
REMARK  140  A    between atoms: _338  and  _340
REMARK  141  A    between atoms: _340  and  _341
REMARK  142  A    between atoms: _340  and  _343
REMARK  143  A    between atoms: _343  and  _344
REMARK  144  A    between atoms: _350  and  _352
REMARK  145  A    between atoms: _352  and  _353
REMARK  146  A    between atoms: _352  and  _355
REMARK  147  A    between atoms: _358  and  _360
REMARK  148  A    between atoms: _360  and  _361
REMARK  149  A    between atoms: _360  and  _363
REMARK  150  A    between atoms: _363  and  _364
REMARK  151  A    between atoms: _364  and  _365
REMARK  152  A    between atoms: _365  and  _366
REMARK  153  A    between atoms: _366  and  _367
REMARK  154  A    between atoms: _371  and  _373
REMARK  155  A    between atoms: _373  and  _374
REMARK  156  A    between atoms: _373  and  _376
REMARK  157  A    between atoms: _376  and  _377
REMARK  158  A    between atoms: _382  and  _384
REMARK  159  A    between atoms: _384  and  _385
REMARK  160  A    between atoms: _384  and  _387
REMARK  161  A    between atoms: _387  and  _388
REMARK  162  A    between atoms: _390  and  _392
REMARK  163  A    between atoms: _392  and  _393
REMARK  164  A    between atoms: _392  and  _395
REMARK  165  A    between atoms: _395  and  _396
REMARK  166  A    between atoms: _399  and  _401
REMARK  167  A    between atoms: _401  and  _402
REMARK  168  A    between atoms: _401  and  _404
REMARK  169  A    between atoms: _404  and  _405
REMARK  170  A    between atoms: _408  and  _410
REMARK  171  A    between atoms: _410  and  _411
REMARK  172  A    between atoms: _410  and  _413
REMARK  173  A    between atoms: _413  and  _414
REMARK  174  A    between atoms: _417  and  _419
REMARK  175  A    between atoms: _419  and  _420
REMARK  176  A    between atoms: _419  and  _422
REMARK  177  A    between atoms: _422  and  _423
REMARK  178  A    between atoms: _423  and  _424
REMARK  179  A    between atoms: _426  and  _428
REMARK  180  A    between atoms: _428  and  _429
REMARK  181  A    between atoms: _428  and  _431
REMARK  182  A    between atoms: _431  and  _432
REMARK  183  A    between atoms: _432  and  _433
REMARK  184  A    between atoms: _436  and  _438
REMARK  185  A    between atoms: _438  and  _439
REMARK  186  A    between atoms: _438  and  _441
REMARK  187  A    between atoms: _441  and  _442
REMARK  188  A    between atoms: _444  and  _446
REMARK  189  A    between atoms: _446  and  _447
REMARK  190  A    between atoms: _446  and  _449
REMARK  191  A    between atoms: _449  and  _450
REMARK  192  A    between atoms: _453  and  _455
REMARK  193  A    between atoms: _455  and  _456
REMARK  194  A    between atoms: _455  and  _458
REMARK  195  A    between atoms: _458  and  _459
REMARK  196  A    between atoms: _461  and  _463
REMARK  197  A    between atoms: _463  and  _464
REMARK  198  A    between atoms: _463  and  _466
REMARK  199  A    between atoms: _466  and  _467
REMARK  200  A    between atoms: _470  and  _472
REMARK  201  A    between atoms: _472  and  _473
REMARK  202  A    between atoms: _472  and  _475
REMARK  203  A    between atoms: _475  and  _476
REMARK  204  A    between atoms: _479  and  _481
REMARK  205  A    between atoms: _481  and  _482
REMARK  206  A    between atoms: _481  and  _484
REMARK  207  A    between atoms: _484  and  _485
REMARK  208  A    between atoms: _485  and  _486
REMARK  209  A    between atoms: _486  and  _487
REMARK  210  A    between atoms: _487  and  _488
REMARK  211  A    between atoms: _492  and  _494
REMARK  212  A    between atoms: _494  and  _495
REMARK  213  A    between atoms: _497  and  _499
REMARK  214  A    between atoms: _499  and  _500
REMARK  215  A    between atoms: _499  and  _502
REMARK  216  A    between atoms: _502  and  _503
REMARK  217  A    between atoms: _508  and  _509
REMARK  218  A    between atoms: _511  and  _513
REMARK  219  A    between atoms: _513  and  _514
REMARK  220  A    between atoms: _516  and  _518
REMARK  221  A    between atoms: _518  and  _519
REMARK  222  A    between atoms: _518  and  _521
REMARK  223  A    between atoms: _521  and  _522
REMARK                            x       y       z     vdW  Elec       q    Type
REMARK                         _______ _______ _______ _____ _____    ______ ____
ROOT
ATOM      1  O   HOH     1      44.315  56.816  -2.517  0.00  0.00    +0.000 OA
ENDROOT
TORSDOF 0
REMARK  Name = ../refined-set-2016/3s2v/3s2v_pocket.pdb
REMARK  223 active torsions:
REMARK  status: ('A' for Active; 'I' for Inactive)
REMARK    1  A    between atoms: _1  and  _3
REMARK    2  A    between atoms: _3  and  _4
REMARK    3  A    between atoms: _3  and  _6
REMARK    4  A    between atoms: _6  and  _7
REMARK    5  A    between atoms: _10  and  _12
REMARK    6  A    between atoms: _12  and  _13
REMARK    7  A    between atoms: _12  and  _15
REMARK    8  A    between atoms: _15  and  _16
REMARK    9  A    between atoms: _19  and  _21
REMARK   10  A    between atoms: _21  and  _22
REMARK   11  A    between atoms: _21  and  _24
REMARK   12  A    between atoms: _24  and  _25
REMARK   13  A    between atoms: _25  and  _26
REMARK   14  A    between atoms: _29  and  _31
REMARK   15  A    between atoms: _31  and  _32
REMARK   16  A    between atoms: _31  and  _34
REMARK   17  A    between atoms: _34  and  _35
REMARK   18  A    between atoms: _35  and  _36
REMARK   19  A    between atoms: _40  and  _41
REMARK   20  A    between atoms: _46  and  _48
REMARK   21  A    between atoms: _48  and  _49
REMARK   22  A    between atoms: _48  and  _51
REMARK   23  A    between atoms: _51  and  _52
REMARK   24  A    between atoms: _57  and  _58
REMARK   25  A    between atoms: _60  and  _62
REMARK   26  A    between atoms: _62  and  _63
REMARK   27  A    between atoms: _62  and  _65
REMARK   28  A    between atoms: _68  and  _70
REMARK   29  A    between atoms: _70  and  _71
REMARK   30  A    between atoms: _70  and  _73
REMARK   31  A    between atoms: _73  and  _74
REMARK   32  A    between atoms: _74  and  _75
REMARK   33  A    between atoms: _75  and  _76
REMARK   34  A    between atoms: _76  and  _77
REMARK   35  A    between atoms: _81  and  _83
REMARK   36  A    between atoms: _83  and  _84
REMARK   37  A    between atoms: _83  and  _86
REMARK   38  A    between atoms: _86  and  _87
REMARK   39  A    between atoms: _92  and  _93
REMARK   40  A    between atoms: _95  and  _97
REMARK   41  A    between atoms: _97  and  _98
REMARK   42  A    between atoms: _100  and  _102
REMARK   43  A    between atoms: _102  and  _103
REMARK   44  A    between atoms: _106  and  _108
REMARK   45  A    between atoms: _108  and  _109
REMARK   46  A    between atoms: _108  and  _111
REMARK   47  A    between atoms: _111  and  _112
REMARK   48  A    between atoms: _112  and  _113
REMARK   49  A    between atoms: _115  and  _117
REMARK   50  A    between atoms: _117  and  _118
REMARK   51  A    between atoms: _117  and  _120
REMARK   52  A    between atoms: _123  and  _125
REMARK   53  A    between atoms: _125  and  _126
REMARK   54  A    between atoms: _130  and  _131
REMARK   55  A    between atoms: _136  and  _138
REMARK   56  A    between atoms: _138  and  _139
REMARK   57  A    between atoms: _138  and  _141
REMARK   58  A    between atoms: _141  and  _142
REMARK   59  A    between atoms: _145  and  _147
REMARK   60  A    between atoms: _147  and  _148
REMARK   61  A    between atoms: _147  and  _150
REMARK   62  A    between atoms: _150  and  _151
REMARK   63  A    between atoms: _154  and  _156
REMARK   64  A    between atoms: _156  and  _157
REMARK   65  A    between atoms: _156  and  _159
REMARK   66  A    between atoms: _159  and  _160
REMARK   67  A    between atoms: _163  and  _165
REMARK   68  A    between atoms: _165  and  _166
REMARK   69  A    between atoms: _165  and  _168
REMARK   70  A    between atoms: _168  and  _169
REMARK   71  A    between atoms: _172  and  _174
REMARK   72  A    between atoms: _174  and  _175
REMARK   73  A    between atoms: _174  and  _177
REMARK   74  A    between atoms: _177  and  _178
REMARK   75  A    between atoms: _178  and  _179
REMARK   76  A    between atoms: _179  and  _180
REMARK   77  A    between atoms: _189  and  _191
REMARK   78  A    between atoms: _191  and  _192
REMARK   79  A    between atoms: _191  and  _194
REMARK   80  A    between atoms: _194  and  _195
REMARK   81  A    between atoms: _201  and  _203
REMARK   82  A    between atoms: _203  and  _204
REMARK   83  A    between atoms: _203  and  _206
REMARK   84  A    between atoms: _206  and  _207
REMARK   85  A    between atoms: _207  and  _208
REMARK   86  A    between atoms: _210  and  _212
REMARK   87  A    between atoms: _212  and  _213
REMARK   88  A    between atoms: _212  and  _215
REMARK   89  A    between atoms: _215  and  _216
REMARK   90  A    between atoms: _219  and  _221
REMARK   91  A    between atoms: _221  and  _222
REMARK   92  A    between atoms: _224  and  _226
REMARK   93  A    between atoms: _226  and  _227
REMARK   94  A    between atoms: _226  and  _229
REMARK   95  A    between atoms: _229  and  _230
REMARK   96  A    between atoms: _233  and  _235
REMARK   97  A    between atoms: _235  and  _236
REMARK   98  A    between atoms: _235  and  _238
REMARK   99  A    between atoms: _238  and  _239
REMARK  100  A    between atoms: _241  and  _243
REMARK  101  A    between atoms: _243  and  _244
REMARK  102  A    between atoms: _246  and  _248
REMARK  103  A    between atoms: _248  and  _249
REMARK  104  A    between atoms: _252  and  _254
REMARK  105  A    between atoms: _254  and  _255
REMARK  106  A    between atoms: _254  and  _257
REMARK  107  A    between atoms: _260  and  _262
REMARK  108  A    between atoms: _262  and  _263
REMARK  109  A    between atoms: _262  and  _265
REMARK  110  A    between atoms: _265  and  _266
REMARK  111  A    between atoms: _266  and  _267
REMARK  112  A    between atoms: _267  and  _268
REMARK  113  A    between atoms: _277  and  _279
REMARK  114  A    between atoms: _279  and  _280
REMARK  115  A    between atoms: _279  and  _282
REMARK  116  A    between atoms: _282  and  _283
REMARK  117  A    between atoms: _286  and  _288
REMARK  118  A    between atoms: _288  and  _289
REMARK  119  A    between atoms: _291  and  _293
REMARK  120  A    between atoms: _293  and  _294
REMARK  121  A    between atoms: _293  and  _296
REMARK  122  A    between atoms: _296  and  _297
REMARK  123  A    between atoms: _299  and  _301
REMARK  124  A    between atoms: _301  and  _302
REMARK  125  A    between atoms: _301  and  _304
REMARK  126  A    between atoms: _304  and  _305
REMARK  127  A    between atoms: _308  and  _310
REMARK  128  A    between atoms: _310  and  _311
REMARK  129  A    between atoms: _310  and  _313
REMARK  130  A    between atoms: _313  and  _314
REMARK  131  A    between atoms: _314  and  _315
REMARK  132  A    between atoms: _317  and  _319
REMARK  133  A    between atoms: _319  and  _320
REMARK  134  A    between atoms: _319  and  _322
REMARK  135  A    between atoms: _322  and  _323
REMARK  136  A    between atoms: _326  and  _328
REMARK  137  A    between atoms: _328  and  _329
REMARK  138  A    between atoms: _328  and  _331
REMARK  139  A    between atoms: _331  and  _332
REMARK  140  A    between atoms: _338  and  _340
REMARK  141  A    between atoms: _340  and  _341
REMARK  142  A    between atoms: _340  and  _343
REMARK  143  A    between atoms: _343  and  _344
REMARK  144  A    between atoms: _350  and  _352
REMARK  145  A    between atoms: _352  and  _353
REMARK  146  A    between atoms: _352  and  _355
REMARK  147  A    between atoms: _358  and  _360
REMARK  148  A    between atoms: _360  and  _361
REMARK  149  A    between atoms: _360  and  _363
REMARK  150  A    between atoms: _363  and  _364
REMARK  151  A    between atoms: _364  and  _365
REMARK  152  A    between atoms: _365  and  _366
REMARK  153  A    between atoms: _366  and  _367
REMARK  154  A    between atoms: _371  and  _373
REMARK  155  A    between atoms: _373  and  _374
REMARK  156  A    between atoms: _373  and  _376
REMARK  157  A    between atoms: _376  and  _377
REMARK  158  A    between atoms: _382  and  _384
REMARK  159  A    between atoms: _384  and  _385
REMARK  160  A    between atoms: _384  and  _387
REMARK  161  A    between atoms: _387  and  _388
REMARK  162  A    between atoms: _390  and  _392
REMARK  163  A    between atoms: _392  and  _393
REMARK  164  A    between atoms: _392  and  _395
REMARK  165  A    between atoms: _395  and  _396
REMARK  166  A    between atoms: _399  and  _401
REMARK  167  A    between atoms: _401  and  _402
REMARK  168  A    between atoms: _401  and  _404
REMARK  169  A    between atoms: _404  and  _405
REMARK  170  A    between atoms: _408  and  _410
REMARK  171  A    between atoms: _410  and  _411
REMARK  172  A    between atoms: _410  and  _413
REMARK  173  A    between atoms: _413  and  _414
REMARK  174  A    between atoms: _417  and  _419
REMARK  175  A    between atoms: _419  and  _420
REMARK  176  A    between atoms: _419  and  _422
REMARK  177  A    between atoms: _422  and  _423
REMARK  178  A    between atoms: _423  and  _424
REMARK  179  A    between atoms: _426  and  _428
REMARK  180  A    between atoms: _428  and  _429
REMARK  181  A    between atoms: _428  and  _431
REMARK  182  A    between atoms: _431  and  _432
REMARK  183  A    between atoms: _432  and  _433
REMARK  184  A    between atoms: _436  and  _438
REMARK  185  A    between atoms: _438  and  _439
REMARK  186  A    between atoms: _438  and  _441
REMARK  187  A    between atoms: _441  and  _442
REMARK  188  A    between atoms: _444  and  _446
REMARK  189  A    between atoms: _446  and  _447
REMARK  190  A    between atoms: _446  and  _449
REMARK  191  A    between atoms: _449  and  _450
REMARK  192  A    between atoms: _453  and  _455
REMARK  193  A    between atoms: _455  and  _456
REMARK  194  A    between atoms: _455  and  _458
REMARK  195  A    between atoms: _458  and  _459
REMARK  196  A    between atoms: _461  and  _463
REMARK  197  A    between atoms: _463  and  _464
REMARK  198  A    between atoms: _463  and  _466
REMARK  199  A    between atoms: _466  and  _467
REMARK  200  A    between atoms: _470  and  _472
REMARK  201  A    between atoms: _472  and  _473
REMARK  202  A    between atoms: _472  and  _475
REMARK  203  A    between atoms: _475  and  _476
REMARK  204  A    between atoms: _479  and  _481
REMARK  205  A    between atoms: _481  and  _482
REMARK  206  A    between atoms: _481  and  _484
REMARK  207  A    between atoms: _484  and  _485
REMARK  208  A    between atoms: _485  and  _486
REMARK  209  A    between atoms: _486  and  _487
REMARK  210  A    between atoms: _487  and  _488
REMARK  211  A    between atoms: _492  and  _494
REMARK  212  A    between atoms: _494  and  _495
REMARK  213  A    between atoms: _497  and  _499
REMARK  214  A    between atoms: _499  and  _500
REMARK  215  A    between atoms: _499  and  _502
REMARK  216  A    between atoms: _502  and  _503
REMARK  217  A    between atoms: _508  and  _509
REMARK  218  A    between atoms: _511  and  _513
REMARK  219  A    between atoms: _513  and  _514
REMARK  220  A    between atoms: _516  and  _518
REMARK  221  A    between atoms: _518  and  _519
REMARK  222  A    between atoms: _518  and  _521
REMARK  223  A    between atoms: _521  and  _522
REMARK                            x       y       z     vdW  Elec       q    Type
REMARK                         _______ _______ _______ _____ _____    ______ ____
ROOT
ATOM      1  O   HOH     1      45.097  61.347   7.508  0.00  0.00    +0.000 OA
ENDROOT
TORSDOF 0
REMARK  Name = ../refined-set-2016/3s2v/3s2v_pocket.pdb
REMARK  223 active torsions:
REMARK  status: ('A' for Active; 'I' for Inactive)
REMARK    1  A    between atoms: _1  and  _3
REMARK    2  A    between atoms: _3  and  _4
REMARK    3  A    between atoms: _3  and  _6
REMARK    4  A    between atoms: _6  and  _7
REMARK    5  A    between atoms: _10  and  _12
REMARK    6  A    between atoms: _12  and  _13
REMARK    7  A    between atoms: _12  and  _15
REMARK    8  A    between atoms: _15  and  _16
REMARK    9  A    between atoms: _19  and  _21
REMARK   10  A    between atoms: _21  and  _22
REMARK   11  A    between atoms: _21  and  _24
REMARK   12  A    between atoms: _24  and  _25
REMARK   13  A    between atoms: _25  and  _26
REMARK   14  A    between atoms: _29  and  _31
REMARK   15  A    between atoms: _31  and  _32
REMARK   16  A    between atoms: _31  and  _34
REMARK   17  A    between atoms: _34  and  _35
REMARK   18  A    between atoms: _35  and  _36
REMARK   19  A    between atoms: _40  and  _41
REMARK   20  A    between atoms: _46  and  _48
REMARK   21  A    between atoms: _48  and  _49
REMARK   22  A    between atoms: _48  and  _51
REMARK   23  A    between atoms: _51  and  _52
REMARK   24  A    between atoms: _57  and  _58
REMARK   25  A    between atoms: _60  and  _62
REMARK   26  A    between atoms: _62  and  _63
REMARK   27  A    between atoms: _62  and  _65
REMARK   28  A    between atoms: _68  and  _70
REMARK   29  A    between atoms: _70  and  _71
REMARK   30  A    between atoms: _70  and  _73
REMARK   31  A    between atoms: _73  and  _74
REMARK   32  A    between atoms: _74  and  _75
REMARK   33  A    between atoms: _75  and  _76
REMARK   34  A    between atoms: _76  and  _77
REMARK   35  A    between atoms: _81  and  _83
REMARK   36  A    between atoms: _83  and  _84
REMARK   37  A    between atoms: _83  and  _86
REMARK   38  A    between atoms: _86  and  _87
REMARK   39  A    between atoms: _92  and  _93
REMARK   40  A    between atoms: _95  and  _97
REMARK   41  A    between atoms: _97  and  _98
REMARK   42  A    between atoms: _100  and  _102
REMARK   43  A    between atoms: _102  and  _103
REMARK   44  A    between atoms: _106  and  _108
REMARK   45  A    between atoms: _108  and  _109
REMARK   46  A    between atoms: _108  and  _111
REMARK   47  A    between atoms: _111  and  _112
REMARK   48  A    between atoms: _112  and  _113
REMARK   49  A    between atoms: _115  and  _117
REMARK   50  A    between atoms: _117  and  _118
REMARK   51  A    between atoms: _117  and  _120
REMARK   52  A    between atoms: _123  and  _125
REMARK   53  A    between atoms: _125  and  _126
REMARK   54  A    between atoms: _130  and  _131
REMARK   55  A    between atoms: _136  and  _138
REMARK   56  A    between atoms: _138  and  _139
REMARK   57  A    between atoms: _138  and  _141
REMARK   58  A    between atoms: _141  and  _142
REMARK   59  A    between atoms: _145  and  _147
REMARK   60  A    between atoms: _147  and  _148
REMARK   61  A    between atoms: _147  and  _150
REMARK   62  A    between atoms: _150  and  _151
REMARK   63  A    between atoms: _154  and  _156
REMARK   64  A    between atoms: _156  and  _157
REMARK   65  A    between atoms: _156  and  _159
REMARK   66  A    between atoms: _159  and  _160
REMARK   67  A    between atoms: _163  and  _165
REMARK   68  A    between atoms: _165  and  _166
REMARK   69  A    between atoms: _165  and  _168
REMARK   70  A    between atoms: _168  and  _169
REMARK   71  A    between atoms: _172  and  _174
REMARK   72  A    between atoms: _174  and  _175
REMARK   73  A    between atoms: _174  and  _177
REMARK   74  A    between atoms: _177  and  _178
REMARK   75  A    between atoms: _178  and  _179
REMARK   76  A    between atoms: _179  and  _180
REMARK   77  A    between atoms: _189  and  _191
REMARK   78  A    between atoms: _191  and  _192
REMARK   79  A    between atoms: _191  and  _194
REMARK   80  A    between atoms: _194  and  _195
REMARK   81  A    between atoms: _201  and  _203
REMARK   82  A    between atoms: _203  and  _204
REMARK   83  A    between atoms: _203  and  _206
REMARK   84  A    between atoms: _206  and  _207
REMARK   85  A    between atoms: _207  and  _208
REMARK   86  A    between atoms: _210  and  _212
REMARK   87  A    between atoms: _212  and  _213
REMARK   88  A    between atoms: _212  and  _215
REMARK   89  A    between atoms: _215  and  _216
REMARK   90  A    between atoms: _219  and  _221
REMARK   91  A    between atoms: _221  and  _222
REMARK   92  A    between atoms: _224  and  _226
REMARK   93  A    between atoms: _226  and  _227
REMARK   94  A    between atoms: _226  and  _229
REMARK   95  A    between atoms: _229  and  _230
REMARK   96  A    between atoms: _233  and  _235
REMARK   97  A    between atoms: _235  and  _236
REMARK   98  A    between atoms: _235  and  _238
REMARK   99  A    between atoms: _238  and  _239
REMARK  100  A    between atoms: _241  and  _243
REMARK  101  A    between atoms: _243  and  _244
REMARK  102  A    between atoms: _246  and  _248
REMARK  103  A    between atoms: _248  and  _249
REMARK  104  A    between atoms: _252  and  _254
REMARK  105  A    between atoms: _254  and  _255
REMARK  106  A    between atoms: _254  and  _257
REMARK  107  A    between atoms: _260  and  _262
REMARK  108  A    between atoms: _262  and  _263
REMARK  109  A    between atoms: _262  and  _265
REMARK  110  A    between atoms: _265  and  _266
REMARK  111  A    between atoms: _266  and  _267
REMARK  112  A    between atoms: _267  and  _268
REMARK  113  A    between atoms: _277  and  _279
REMARK  114  A    between atoms: _279  and  _280
REMARK  115  A    between atoms: _279  and  _282
REMARK  116  A    between atoms: _282  and  _283
REMARK  117  A    between atoms: _286  and  _288
REMARK  118  A    between atoms: _288  and  _289
REMARK  119  A    between atoms: _291  and  _293
REMARK  120  A    between atoms: _293  and  _294
REMARK  121  A    between atoms: _293  and  _296
REMARK  122  A    between atoms: _296  and  _297
REMARK  123  A    between atoms: _299  and  _301
REMARK  124  A    between atoms: _301  and  _302
REMARK  125  A    between atoms: _301  and  _304
REMARK  126  A    between atoms: _304  and  _305
REMARK  127  A    between atoms: _308  and  _310
REMARK  128  A    between atoms: _310  and  _311
REMARK  129  A    between atoms: _310  and  _313
REMARK  130  A    between atoms: _313  and  _314
REMARK  131  A    between atoms: _314  and  _315
REMARK  132  A    between atoms: _317  and  _319
REMARK  133  A    between atoms: _319  and  _320
REMARK  134  A    between atoms: _319  and  _322
REMARK  135  A    between atoms: _322  and  _323
REMARK  136  A    between atoms: _326  and  _328
REMARK  137  A    between atoms: _328  and  _329
REMARK  138  A    between atoms: _328  and  _331
REMARK  139  A    between atoms: _331  and  _332
REMARK  140  A    between atoms: _338  and  _340
REMARK  141  A    between atoms: _340  and  _341
REMARK  142  A    between atoms: _340  and  _343
REMARK  143  A    between atoms: _343  and  _344
REMARK  144  A    between atoms: _350  and  _352
REMARK  145  A    between atoms: _352  and  _353
REMARK  146  A    between atoms: _352  and  _355
REMARK  147  A    between atoms: _358  and  _360
REMARK  148  A    between atoms: _360  and  _361
REMARK  149  A    between atoms: _360  and  _363
REMARK  150  A    between atoms: _363  and  _364
REMARK  151  A    between atoms: _364  and  _365
REMARK  152  A    between atoms: _365  and  _366
REMARK  153  A    between atoms: _366  and  _367
REMARK  154  A    between atoms: _371  and  _373
REMARK  155  A    between atoms: _373  and  _374
REMARK  156  A    between atoms: _373  and  _376
REMARK  157  A    between atoms: _376  and  _377
REMARK  158  A    between atoms: _382  and  _384
REMARK  159  A    between atoms: _384  and  _385
REMARK  160  A    between atoms: _384  and  _387
REMARK  161  A    between atoms: _387  and  _388
REMARK  162  A    between atoms: _390  and  _392
REMARK  163  A    between atoms: _392  and  _393
REMARK  164  A    between atoms: _392  and  _395
REMARK  165  A    between atoms: _395  and  _396
REMARK  166  A    between atoms: _399  and  _401
REMARK  167  A    between atoms: _401  and  _402
REMARK  168  A    between atoms: _401  and  _404
REMARK  169  A    between atoms: _404  and  _405
REMARK  170  A    between atoms: _408  and  _410
REMARK  171  A    between atoms: _410  and  _411
REMARK  172  A    between atoms: _410  and  _413
REMARK  173  A    between atoms: _413  and  _414
REMARK  174  A    between atoms: _417  and  _419
REMARK  175  A    between atoms: _419  and  _420
REMARK  176  A    between atoms: _419  and  _422
REMARK  177  A    between atoms: _422  and  _423
REMARK  178  A    between atoms: _423  and  _424
REMARK  179  A    between atoms: _426  and  _428
REMARK  180  A    between atoms: _428  and  _429
REMARK  181  A    between atoms: _428  and  _431
REMARK  182  A    between atoms: _431  and  _432
REMARK  183  A    between atoms: _432  and  _433
REMARK  184  A    between atoms: _436  and  _438
REMARK  185  A    between atoms: _438  and  _439
REMARK  186  A    between atoms: _438  and  _441
REMARK  187  A    between atoms: _441  and  _442
REMARK  188  A    between atoms: _444  and  _446
REMARK  189  A    between atoms: _446  and  _447
REMARK  190  A    between atoms: _446  and  _449
REMARK  191  A    between atoms: _449  and  _450
REMARK  192  A    between atoms: _453  and  _455
REMARK  193  A    between atoms: _455  and  _456
REMARK  194  A    between atoms: _455  and  _458
REMARK  195  A    between atoms: _458  and  _459
REMARK  196  A    between atoms: _461  and  _463
REMARK  197  A    between atoms: _463  and  _464
REMARK  198  A    between atoms: _463  and  _466
REMARK  199  A    between atoms: _466  and  _467
REMARK  200  A    between atoms: _470  and  _472
REMARK  201  A    between atoms: _472  and  _473
REMARK  202  A    between atoms: _472  and  _475
REMARK  203  A    between atoms: _475  and  _476
REMARK  204  A    between atoms: _479  and  _481
REMARK  205  A    between atoms: _481  and  _482
REMARK  206  A    between atoms: _481  and  _484
REMARK  207  A    between atoms: _484  and  _485
REMARK  208  A    between atoms: _485  and  _486
REMARK  209  A    between atoms: _486  and  _487
REMARK  210  A    between atoms: _487  and  _488
REMARK  211  A    between atoms: _492  and  _494
REMARK  212  A    between atoms: _494  and  _495
REMARK  213  A    between atoms: _497  and  _499
REMARK  214  A    between atoms: _499  and  _500
REMARK  215  A    between atoms: _499  and  _502
REMARK  216  A    between atoms: _502  and  _503
REMARK  217  A    between atoms: _508  and  _509
REMARK  218  A    between atoms: _511  and  _513
REMARK  219  A    between atoms: _513  and  _514
REMARK  220  A    between atoms: _516  and  _518
REMARK  221  A    between atoms: _518  and  _519
REMARK  222  A    between atoms: _518  and  _521
REMARK  223  A    between atoms: _521  and  _522
REMARK                            x       y       z     vdW  Elec       q    Type
REMARK                         _______ _______ _______ _____ _____    ______ ____
ROOT
ATOM      1  O   HOH     1      47.477  52.827   7.492  0.00  0.00    +0.000 OA
ENDROOT
TORSDOF 0
