REMARK  Name = ../refined-set-2016/3b2q/3b2q_pocket.pdb
REMARK  254 active torsions:
REMARK  status: ('A' for Active; 'I' for Inactive)
REMARK    1  A    between atoms: _2  and  _3
REMARK    2  A    between atoms: _8  and  _10
REMARK    3  A    between atoms: _10  and  _11
REMARK    4  A    between atoms: _10  and  _13
REMARK    5  A    between atoms: _13  and  _14
REMARK    6  A    between atoms: _17  and  _19
REMARK    7  A    between atoms: _19  and  _20
REMARK    8  A    between atoms: _19  and  _22
REMARK    9  A    between atoms: _22  and  _23
REMARK   10  A    between atoms: _29  and  _31
REMARK   11  A    between atoms: _31  and  _32
REMARK   12  A    between atoms: _31  and  _34
REMARK   13  A    between atoms: _34  and  _35
REMARK   14  A    between atoms: _37  and  _39
REMARK   15  A    between atoms: _39  and  _40
REMARK   16  A    between atoms: _43  and  _45
REMARK   17  A    between atoms: _45  and  _46
REMARK   18  A    between atoms: _45  and  _48
REMARK   19  A    between atoms: _48  and  _49
REMARK   20  A    between atoms: _51  and  _53
REMARK   21  A    between atoms: _53  and  _54
REMARK   22  A    between atoms: _56  and  _58
REMARK   23  A    between atoms: _58  and  _59
REMARK   24  A    between atoms: _58  and  _61
REMARK   25  A    between atoms: _61  and  _62
REMARK   26  A    between atoms: _65  and  _67
REMARK   27  A    between atoms: _67  and  _68
REMARK   28  A    between atoms: _67  and  _70
REMARK   29  A    between atoms: _70  and  _71
REMARK   30  A    between atoms: _74  and  _76
REMARK   31  A    between atoms: _76  and  _77
REMARK   32  A    between atoms: _76  and  _79
REMARK   33  A    between atoms: _79  and  _80
REMARK   34  A    between atoms: _82  and  _84
REMARK   35  A    between atoms: _84  and  _85
REMARK   36  A    between atoms: _84  and  _87
REMARK   37  A    between atoms: _87  and  _88
REMARK   38  A    between atoms: _88  and  _89
REMARK   39  A    between atoms: _92  and  _93
REMARK   40  A    between atoms: _99  and  _100
REMARK   41  A    between atoms: _105  and  _107
REMARK   42  A    between atoms: _107  and  _108
REMARK   43  A    between atoms: _107  and  _110
REMARK   44  A    between atoms: _110  and  _111
REMARK   45  A    between atoms: _114  and  _116
REMARK   46  A    between atoms: _116  and  _117
REMARK   47  A    between atoms: _116  and  _119
REMARK   48  A    between atoms: _119  and  _120
REMARK   49  A    between atoms: _123  and  _125
REMARK   50  A    between atoms: _125  and  _126
REMARK   51  A    between atoms: _125  and  _128
REMARK   52  A    between atoms: _128  and  _129
REMARK   53  A    between atoms: _131  and  _133
REMARK   54  A    between atoms: _133  and  _134
REMARK   55  A    between atoms: _136  and  _138
REMARK   56  A    between atoms: _138  and  _139
REMARK   57  A    between atoms: _138  and  _141
REMARK   58  A    between atoms: _141  and  _142
REMARK   59  A    between atoms: _147  and  _148
REMARK   60  A    between atoms: _150  and  _152
REMARK   61  A    between atoms: _152  and  _153
REMARK   62  A    between atoms: _152  and  _155
REMARK   63  A    between atoms: _155  and  _156
REMARK   64  A    between atoms: _159  and  _161
REMARK   65  A    between atoms: _161  and  _162
REMARK   66  A    between atoms: _161  and  _164
REMARK   67  A    between atoms: _164  and  _165
REMARK   68  A    between atoms: _168  and  _170
REMARK   69  A    between atoms: _170  and  _171
REMARK   70  A    between atoms: _173  and  _175
REMARK   71  A    between atoms: _175  and  _176
REMARK   72  A    between atoms: _175  and  _178
REMARK   73  A    between atoms: _178  and  _179
REMARK   74  A    between atoms: _179  and  _180
REMARK   75  A    between atoms: _185  and  _187
REMARK   76  A    between atoms: _187  and  _188
REMARK   77  A    between atoms: _187  and  _190
REMARK   78  A    between atoms: _190  and  _191
REMARK   79  A    between atoms: _194  and  _196
REMARK   80  A    between atoms: _196  and  _197
REMARK   81  A    between atoms: _196  and  _199
REMARK   82  A    between atoms: _202  and  _204
REMARK   83  A    between atoms: _204  and  _205
REMARK   84  A    between atoms: _204  and  _207
REMARK   85  A    between atoms: _210  and  _212
REMARK   86  A    between atoms: _212  and  _213
REMARK   87  A    between atoms: _216  and  _218
REMARK   88  A    between atoms: _218  and  _219
REMARK   89  A    between atoms: _218  and  _221
REMARK   90  A    between atoms: _221  and  _222
REMARK   91  A    between atoms: _222  and  _223
REMARK   92  A    between atoms: _223  and  _224
REMARK   93  A    between atoms: _233  and  _235
REMARK   94  A    between atoms: _235  and  _236
REMARK   95  A    between atoms: _235  and  _238
REMARK   96  A    between atoms: _238  and  _239
REMARK   97  A    between atoms: _239  and  _240
REMARK   98  A    between atoms: _243  and  _245
REMARK   99  A    between atoms: _245  and  _246
REMARK  100  A    between atoms: _245  and  _248
REMARK  101  A    between atoms: _248  and  _249
REMARK  102  A    between atoms: _252  and  _254
REMARK  103  A    between atoms: _254  and  _255
REMARK  104  A    between atoms: _254  and  _257
REMARK  105  A    between atoms: _257  and  _258
REMARK  106  A    between atoms: _263  and  _265
REMARK  107  A    between atoms: _265  and  _266
REMARK  108  A    between atoms: _265  and  _268
REMARK  109  A    between atoms: _268  and  _269
REMARK  110  A    between atoms: _269  and  _270
REMARK  111  A    between atoms: _270  and  _271
REMARK  112  A    between atoms: _281  and  _282
REMARK  113  A    between atoms: _287  and  _289
REMARK  114  A    between atoms: _289  and  _290
REMARK  115  A    between atoms: _289  and  _292
REMARK  116  A    between atoms: _292  and  _293
REMARK  117  A    between atoms: _298  and  _300
REMARK  118  A    between atoms: _300  and  _301
REMARK  119  A    between atoms: _300  and  _303
REMARK  120  A    between atoms: _303  and  _304
REMARK  121  A    between atoms: _308  and  _309
REMARK  122  A    between atoms: _314  and  _316
REMARK  123  A    between atoms: _316  and  _317
REMARK  124  A    between atoms: _316  and  _319
REMARK  125  A    between atoms: _319  and  _320
REMARK  126  A    between atoms: _322  and  _324
REMARK  127  A    between atoms: _324  and  _325
REMARK  128  A    between atoms: _324  and  _327
REMARK  129  A    between atoms: _327  and  _328
REMARK  130  A    between atoms: _331  and  _333
REMARK  131  A    between atoms: _333  and  _334
REMARK  132  A    between atoms: _333  and  _336
REMARK  133  A    between atoms: _336  and  _337
REMARK  134  A    between atoms: _337  and  _338
REMARK  135  A    between atoms: _338  and  _339
REMARK  136  A    between atoms: _348  and  _350
REMARK  137  A    between atoms: _350  and  _351
REMARK  138  A    between atoms: _350  and  _353
REMARK  139  A    between atoms: _353  and  _354
REMARK  140  A    between atoms: _360  and  _362
REMARK  141  A    between atoms: _362  and  _363
REMARK  142  A    between atoms: _362  and  _365
REMARK  143  A    between atoms: _365  and  _366
REMARK  144  A    between atoms: _368  and  _370
REMARK  145  A    between atoms: _370  and  _371
REMARK  146  A    between atoms: _374  and  _376
REMARK  147  A    between atoms: _376  and  _377
REMARK  148  A    between atoms: _376  and  _379
REMARK  149  A    between atoms: _379  and  _380
REMARK  150  A    between atoms: _385  and  _386
REMARK  151  A    between atoms: _388  and  _390
REMARK  152  A    between atoms: _390  and  _391
REMARK  153  A    between atoms: _390  and  _393
REMARK  154  A    between atoms: _393  and  _394
REMARK  155  A    between atoms: _394  and  _395
REMARK  156  A    between atoms: _397  and  _399
REMARK  157  A    between atoms: _399  and  _400
REMARK  158  A    between atoms: _399  and  _402
REMARK  159  A    between atoms: _402  and  _403
REMARK  160  A    between atoms: _408  and  _409
REMARK  161  A    between atoms: _411  and  _413
REMARK  162  A    between atoms: _413  and  _414
REMARK  163  A    between atoms: _413  and  _416
REMARK  164  A    between atoms: _416  and  _417
REMARK  165  A    between atoms: _420  and  _422
REMARK  166  A    between atoms: _422  and  _423
REMARK  167  A    between atoms: _422  and  _425
REMARK  168  A    between atoms: _425  and  _426
REMARK  169  A    between atoms: _426  and  _427
REMARK  170  A    between atoms: _429  and  _431
REMARK  171  A    between atoms: _431  and  _432
REMARK  172  A    between atoms: _431  and  _434
REMARK  173  A    between atoms: _434  and  _435
REMARK  174  A    between atoms: _439  and  _440
REMARK  175  A    between atoms: _445  and  _447
REMARK  176  A    between atoms: _447  and  _448
REMARK  177  A    between atoms: _447  and  _450
REMARK  178  A    between atoms: _450  and  _451
REMARK  179  A    between atoms: _455  and  _456
REMARK  180  A    between atoms: _461  and  _463
REMARK  181  A    between atoms: _463  and  _464
REMARK  182  A    between atoms: _463  and  _466
REMARK  183  A    between atoms: _466  and  _467
REMARK  184  A    between atoms: _470  and  _472
REMARK  185  A    between atoms: _472  and  _473
REMARK  186  A    between atoms: _472  and  _475
REMARK  187  A    between atoms: _475  and  _476
REMARK  188  A    between atoms: _479  and  _481
REMARK  189  A    between atoms: _481  and  _482
REMARK  190  A    between atoms: _481  and  _484
REMARK  191  A    between atoms: _484  and  _485
REMARK  192  A    between atoms: _487  and  _489
REMARK  193  A    between atoms: _489  and  _490
REMARK  194  A    between atoms: _492  and  _494
REMARK  195  A    between atoms: _494  and  _495
REMARK  196  A    between atoms: _494  and  _497
REMARK  197  A    between atoms: _497  and  _498
REMARK  198  A    between atoms: _503  and  _504
REMARK  199  A    between atoms: _506  and  _508
REMARK  200  A    between atoms: _508  and  _509
REMARK  201  A    between atoms: _508  and  _511
REMARK  202  A    between atoms: _511  and  _512
REMARK  203  A    between atoms: _515  and  _517
REMARK  204  A    between atoms: _517  and  _518
REMARK  205  A    between atoms: _517  and  _520
REMARK  206  A    between atoms: _520  and  _521
REMARK  207  A    between atoms: _524  and  _526
REMARK  208  A    between atoms: _526  and  _527
REMARK  209  A    between atoms: _529  and  _531
REMARK  210  A    between atoms: _531  and  _532
REMARK  211  A    between atoms: _531  and  _534
REMARK  212  A    between atoms: _534  and  _535
REMARK  213  A    between atoms: _535  and  _536
REMARK  214  A    between atoms: _541  and  _543
REMARK  215  A    between atoms: _543  and  _544
REMARK  216  A    between atoms: _543  and  _546
REMARK  217  A    between atoms: _546  and  _547
REMARK  218  A    between atoms: _550  and  _552
REMARK  219  A    between atoms: _552  and  _553
REMARK  220  A    between atoms: _552  and  _555
REMARK  221  A    between atoms: _558  and  _560
REMARK  222  A    between atoms: _560  and  _561
REMARK  223  A    between atoms: _560  and  _563
REMARK  224  A    between atoms: _566  and  _568
REMARK  225  A    between atoms: _568  and  _569
REMARK  226  A    between atoms: _572  and  _574
REMARK  227  A    between atoms: _574  and  _575
REMARK  228  A    between atoms: _574  and  _577
REMARK  229  A    between atoms: _577  and  _578
REMARK  230  A    between atoms: _578  and  _579
REMARK  231  A    between atoms: _579  and  _580
REMARK  232  A    between atoms: _589  and  _591
REMARK  233  A    between atoms: _591  and  _592
REMARK  234  A    between atoms: _591  and  _594
REMARK  235  A    between atoms: _594  and  _595
REMARK  236  A    between atoms: _600  and  _602
REMARK  237  A    between atoms: _602  and  _603
REMARK  238  A    between atoms: _602  and  _605
REMARK  239  A    between atoms: _605  and  _606
REMARK  240  A    between atoms: _610  and  _611
REMARK  241  A    between atoms: _616  and  _618
REMARK  242  A    between atoms: _618  and  _619
REMARK  243  A    between atoms: _618  and  _621
REMARK  244  A    between atoms: _621  and  _622
REMARK  245  A    between atoms: _624  and  _626
REMARK  246  A    between atoms: _626  and  _627
REMARK  247  A    between atoms: _626  and  _629
REMARK  248  A    between atoms: _629  and  _630
REMARK  249  A    between atoms: _633  and  _635
REMARK  250  A    between atoms: _635  and  _636
REMARK  251  A    between atoms: _635  and  _638
REMARK  252  A    between atoms: _638  and  _639
REMARK  253  A    between atoms: _639  and  _640
REMARK  254  A    between atoms: _640  and  _641
REMARK                            x       y       z     vdW  Elec       q    Type
REMARK                         _______ _______ _______ _____ _____    ______ ____
ROOT
ATOM      1  CA  SER A   4     -21.915 -18.428  23.396  0.00  0.00    +0.178 C 
ENDROOT
BRANCH   1   2
ATOM      2  C   SER A   4     -23.247 -19.166  23.490  0.00  0.00    +0.243 C 
ATOM      3  O   SER A   4     -24.210 -18.662  24.058  0.00  0.00    -0.273 OA
ATOM      4  N   ALA A   5     -23.298 -20.362  22.923  0.00  0.00    -0.297 N 
ATOM      5  H   ALA A   5     -22.452 -20.744  22.454  0.00  0.00    +0.150 HD
BRANCH   4   6
ATOM      6  CA  ALA A   5     -24.522 -21.149  22.947  0.00  0.00    +0.149 C 
ATOM      7  CB  ALA A   5     -25.417 -20.770  21.766  0.00  0.00    +0.031 C 
BRANCH   6   8
ATOM      8  C   ALA A   5     -24.191 -22.629  22.896  0.00  0.00    +0.241 C 
ATOM      9  N   SER A   6     -25.214 -23.455  23.069  0.00  0.00    -0.295 N 
ATOM     10  H   SER A   6     -26.163 -23.059  23.225  0.00  0.00    +0.150 HD
ATOM     11  O   ALA A   5     -23.039 -23.012  22.703  0.00  0.00    -0.273 OA
BRANCH   9  12
ATOM     12  CA  SER A   6     -25.045 -24.898  23.046  0.00  0.00    +0.178 C 
BRANCH  12  13
ATOM     13  C   SER A   6     -24.424 -25.364  21.739  0.00  0.00    +0.243 C 
ATOM     14  N   GLY A   7     -23.467 -26.281  21.844  0.00  0.00    -0.295 N 
ATOM     15  H   GLY A   7     -23.184 -26.626  22.783  0.00  0.00    +0.150 HD
ATOM     16  O   SER A   6     -24.796 -24.899  20.657  0.00  0.00    -0.273 OA
BRANCH  14  17
ATOM     17  CA  GLY A   7     -22.816 -26.803  20.659  0.00  0.00    +0.176 C 
BRANCH  17  18
ATOM     18  C   GLY A   7     -21.574 -26.057  20.207  0.00  0.00    +0.243 C 
ATOM     19  N   LEU A   8     -21.308 -24.891  20.784  0.00  0.00    -0.298 N 
ATOM     20  H   LEU A   8     -21.944 -24.524  21.520  0.00  0.00    +0.150 HD
ATOM     21  O   GLY A   7     -20.856 -26.536  19.333  0.00  0.00    -0.273 OA
BRANCH  19  22
ATOM     22  CA  LEU A   8     -20.131 -24.119  20.395  0.00  0.00    +0.137 C 
BRANCH  22  23
ATOM     23  C   LEU A   8     -18.973 -24.421  21.349  0.00  0.00    +0.227 C 
ATOM     24  O   LEU A   8     -19.189 -24.748  22.511  0.00  0.00    -0.286 OA
ENDBRANCH  22  23
BRANCH  22  25
ATOM     25  CB  LEU A   8     -20.478 -22.628  20.381  0.00  0.00    +0.028 C 
BRANCH  25  26
ATOM     26  CG  LEU A   8     -21.607 -22.262  19.398  0.00  0.00    +0.002 C 
ATOM     27  CD2 LEU A   8     -21.938 -20.788  19.507  0.00  0.00    +0.000 C 
ATOM     28  CD1 LEU A   8     -21.196 -22.601  17.969  0.00  0.00    +0.000 C 
ENDBRANCH  25  26
ENDBRANCH  22  25
ENDBRANCH  19  22
ENDBRANCH  17  18
ENDBRANCH  14  17
ENDBRANCH  12  13
BRANCH  12  29
ATOM     29  CB  SER A   6     -26.397 -25.581  23.248  0.00  0.00    +0.166 C 
BRANCH  29  30
ATOM     30  OG  SER A   6     -26.276 -26.984  23.115  0.00  0.00    -0.380 OA
ATOM     31  H   SER A   6     -27.162 -27.405  23.249  0.00  0.00    +0.211 HD
ENDBRANCH  29  30
ENDBRANCH  12  29
ENDBRANCH   9  12
ENDBRANCH   6   8
ENDBRANCH   4   6
ENDBRANCH   1   2
BRANCH   1  33
ATOM     32  C   PHE A   3     -21.186 -16.212  24.049  0.00  0.00    +0.241 C 
ATOM     33  N   SER A   4     -21.840 -17.332  24.344  0.00  0.00    -0.295 N 
ATOM     34  H   SER A   4     -22.305 -17.424  25.270  0.00  0.00    +0.150 HD
ATOM     35  O   PHE A   3     -20.658 -16.003  22.953  0.00  0.00    -0.273 OA
BRANCH  32  36
ATOM     36  CA  PHE A   3     -21.123 -15.173  25.153  0.00  0.00    +0.153 C 
BRANCH  36  39
ATOM     37  C   ILE A   2     -19.152 -15.458  26.528  0.00  0.00    +0.241 C 
ATOM     38  O   ILE A   2     -19.754 -16.179  27.328  0.00  0.00    -0.273 OA
ATOM     39  N   PHE A   3     -19.731 -14.919  25.463  0.00  0.00    -0.297 N 
ATOM     40  H   PHE A   3     -19.174 -14.302  24.838  0.00  0.00    +0.150 HD
BRANCH  37  41
ATOM     41  CA  ILE A   2     -17.693 -15.095  26.757  0.00  0.00    +0.148 C 
BRANCH  41  43
ATOM     42  C   PRO A   1     -17.698 -13.150  28.186  0.00  0.00    +0.239 C 
ATOM     43  N   ILE A   2     -17.731 -14.465  28.053  0.00  0.00    -0.297 N 
ATOM     44  H   ILE A   2     -17.786 -15.060  28.904  0.00  0.00    +0.150 HD
ATOM     45  O   PRO A   1     -17.545 -12.376  27.238  0.00  0.00    -0.274 OA
BRANCH  42  50
ATOM     46  N   PRO A   1     -17.154 -11.390  29.921  0.00  0.00    -0.210 NA
ATOM     47  CD  PRO A   1     -18.132 -10.342  30.259  0.00  0.00    +0.089 C 
ATOM     48  CG  PRO A   1     -19.414 -10.915  29.700  0.00  0.00    +0.021 C 
ATOM     49  CB  PRO A   1     -19.281 -12.368  29.995  0.00  0.00    +0.028 C 
ATOM     50  CA  PRO A   1     -17.827 -12.653  29.617  0.00  0.00    +0.149 C 
ENDBRANCH  42  50
ENDBRANCH  41  43
BRANCH  41  51
ATOM     51  CB  ILE A   2     -16.815 -16.352  26.772  0.00  0.00    +0.027 C 
ATOM     52  CG2 ILE A   2     -17.103 -17.199  25.543  0.00  0.00    +0.002 C 
BRANCH  51  53
ATOM     53  CG1 ILE A   2     -15.338 -15.941  26.844  0.00  0.00    +0.002 C 
ATOM     54  CD1 ILE A   2     -14.356 -17.107  26.966  0.00  0.00    +0.000 C 
ENDBRANCH  51  53
ENDBRANCH  41  51
ENDBRANCH  37  41
ENDBRANCH  36  39
BRANCH  36  55
ATOM     55  CB  PHE A   3     -21.803 -13.877  24.723  0.00  0.00    +0.055 C 
BRANCH  55  56
ATOM     56  CG  PHE A   3     -23.295 -13.945  24.761  0.00  0.00    -0.020 A 
ATOM     57  CD2 PHE A   3     -24.004 -13.323  25.784  0.00  0.00    -0.004 A 
ATOM     58  CE2 PHE A   3     -25.392 -13.412  25.845  0.00  0.00    -0.000 A 
ATOM     59  CZ  PHE A   3     -26.084 -14.132  24.870  0.00  0.00    -0.000 A 
ATOM     60  CE1 PHE A   3     -25.383 -14.755  23.844  0.00  0.00    -0.000 A 
ATOM     61  CD1 PHE A   3     -23.994 -14.658  23.796  0.00  0.00    -0.004 A 
ENDBRANCH  55  56
ENDBRANCH  36  55
ENDBRANCH  32  36
ENDBRANCH   1  33
BRANCH   1  62
ATOM     62  CB  SER A   4     -20.747 -19.385  23.672  0.00  0.00    +0.166 C 
BRANCH  62  63
ATOM     63  OG  SER A   4     -20.706 -20.476  22.772  0.00  0.00    -0.380 OA
ATOM     64  H   SER A   4     -21.546 -20.995  22.846  0.00  0.00    +0.211 HD
ENDBRANCH  62  63
ENDBRANCH   1  62
TORSDOF 25
REMARK  Name = ../refined-set-2016/3b2q/3b2q_pocket.pdb
REMARK  254 active torsions:
REMARK  status: ('A' for Active; 'I' for Inactive)
REMARK    1  A    between atoms: _2  and  _3
REMARK    2  A    between atoms: _8  and  _10
REMARK    3  A    between atoms: _10  and  _11
REMARK    4  A    between atoms: _10  and  _13
REMARK    5  A    between atoms: _13  and  _14
REMARK    6  A    between atoms: _17  and  _19
REMARK    7  A    between atoms: _19  and  _20
REMARK    8  A    between atoms: _19  and  _22
REMARK    9  A    between atoms: _22  and  _23
REMARK   10  A    between atoms: _29  and  _31
REMARK   11  A    between atoms: _31  and  _32
REMARK   12  A    between atoms: _31  and  _34
REMARK   13  A    between atoms: _34  and  _35
REMARK   14  A    between atoms: _37  and  _39
REMARK   15  A    between atoms: _39  and  _40
REMARK   16  A    between atoms: _43  and  _45
REMARK   17  A    between atoms: _45  and  _46
REMARK   18  A    between atoms: _45  and  _48
REMARK   19  A    between atoms: _48  and  _49
REMARK   20  A    between atoms: _51  and  _53
REMARK   21  A    between atoms: _53  and  _54
REMARK   22  A    between atoms: _56  and  _58
REMARK   23  A    between atoms: _58  and  _59
REMARK   24  A    between atoms: _58  and  _61
REMARK   25  A    between atoms: _61  and  _62
REMARK   26  A    between atoms: _65  and  _67
REMARK   27  A    between atoms: _67  and  _68
REMARK   28  A    between atoms: _67  and  _70
REMARK   29  A    between atoms: _70  and  _71
REMARK   30  A    between atoms: _74  and  _76
REMARK   31  A    between atoms: _76  and  _77
REMARK   32  A    between atoms: _76  and  _79
REMARK   33  A    between atoms: _79  and  _80
REMARK   34  A    between atoms: _82  and  _84
REMARK   35  A    between atoms: _84  and  _85
REMARK   36  A    between atoms: _84  and  _87
REMARK   37  A    between atoms: _87  and  _88
REMARK   38  A    between atoms: _88  and  _89
REMARK   39  A    between atoms: _92  and  _93
REMARK   40  A    between atoms: _99  and  _100
REMARK   41  A    between atoms: _105  and  _107
REMARK   42  A    between atoms: _107  and  _108
REMARK   43  A    between atoms: _107  and  _110
REMARK   44  A    between atoms: _110  and  _111
REMARK   45  A    between atoms: _114  and  _116
REMARK   46  A    between atoms: _116  and  _117
REMARK   47  A    between atoms: _116  and  _119
REMARK   48  A    between atoms: _119  and  _120
REMARK   49  A    between atoms: _123  and  _125
REMARK   50  A    between atoms: _125  and  _126
REMARK   51  A    between atoms: _125  and  _128
REMARK   52  A    between atoms: _128  and  _129
REMARK   53  A    between atoms: _131  and  _133
REMARK   54  A    between atoms: _133  and  _134
REMARK   55  A    between atoms: _136  and  _138
REMARK   56  A    between atoms: _138  and  _139
REMARK   57  A    between atoms: _138  and  _141
REMARK   58  A    between atoms: _141  and  _142
REMARK   59  A    between atoms: _147  and  _148
REMARK   60  A    between atoms: _150  and  _152
REMARK   61  A    between atoms: _152  and  _153
REMARK   62  A    between atoms: _152  and  _155
REMARK   63  A    between atoms: _155  and  _156
REMARK   64  A    between atoms: _159  and  _161
REMARK   65  A    between atoms: _161  and  _162
REMARK   66  A    between atoms: _161  and  _164
REMARK   67  A    between atoms: _164  and  _165
REMARK   68  A    between atoms: _168  and  _170
REMARK   69  A    between atoms: _170  and  _171
REMARK   70  A    between atoms: _173  and  _175
REMARK   71  A    between atoms: _175  and  _176
REMARK   72  A    between atoms: _175  and  _178
REMARK   73  A    between atoms: _178  and  _179
REMARK   74  A    between atoms: _179  and  _180
REMARK   75  A    between atoms: _185  and  _187
REMARK   76  A    between atoms: _187  and  _188
REMARK   77  A    between atoms: _187  and  _190
REMARK   78  A    between atoms: _190  and  _191
REMARK   79  A    between atoms: _194  and  _196
REMARK   80  A    between atoms: _196  and  _197
REMARK   81  A    between atoms: _196  and  _199
REMARK   82  A    between atoms: _202  and  _204
REMARK   83  A    between atoms: _204  and  _205
REMARK   84  A    between atoms: _204  and  _207
REMARK   85  A    between atoms: _210  and  _212
REMARK   86  A    between atoms: _212  and  _213
REMARK   87  A    between atoms: _216  and  _218
REMARK   88  A    between atoms: _218  and  _219
REMARK   89  A    between atoms: _218  and  _221
REMARK   90  A    between atoms: _221  and  _222
REMARK   91  A    between atoms: _222  and  _223
REMARK   92  A    between atoms: _223  and  _224
REMARK   93  A    between atoms: _233  and  _235
REMARK   94  A    between atoms: _235  and  _236
REMARK   95  A    between atoms: _235  and  _238
REMARK   96  A    between atoms: _238  and  _239
REMARK   97  A    between atoms: _239  and  _240
REMARK   98  A    between atoms: _243  and  _245
REMARK   99  A    between atoms: _245  and  _246
REMARK  100  A    between atoms: _245  and  _248
REMARK  101  A    between atoms: _248  and  _249
REMARK  102  A    between atoms: _252  and  _254
REMARK  103  A    between atoms: _254  and  _255
REMARK  104  A    between atoms: _254  and  _257
REMARK  105  A    between atoms: _257  and  _258
REMARK  106  A    between atoms: _263  and  _265
REMARK  107  A    between atoms: _265  and  _266
REMARK  108  A    between atoms: _265  and  _268
REMARK  109  A    between atoms: _268  and  _269
REMARK  110  A    between atoms: _269  and  _270
REMARK  111  A    between atoms: _270  and  _271
REMARK  112  A    between atoms: _281  and  _282
REMARK  113  A    between atoms: _287  and  _289
REMARK  114  A    between atoms: _289  and  _290
REMARK  115  A    between atoms: _289  and  _292
REMARK  116  A    between atoms: _292  and  _293
REMARK  117  A    between atoms: _298  and  _300
REMARK  118  A    between atoms: _300  and  _301
REMARK  119  A    between atoms: _300  and  _303
REMARK  120  A    between atoms: _303  and  _304
REMARK  121  A    between atoms: _308  and  _309
REMARK  122  A    between atoms: _314  and  _316
REMARK  123  A    between atoms: _316  and  _317
REMARK  124  A    between atoms: _316  and  _319
REMARK  125  A    between atoms: _319  and  _320
REMARK  126  A    between atoms: _322  and  _324
REMARK  127  A    between atoms: _324  and  _325
REMARK  128  A    between atoms: _324  and  _327
REMARK  129  A    between atoms: _327  and  _328
REMARK  130  A    between atoms: _331  and  _333
REMARK  131  A    between atoms: _333  and  _334
REMARK  132  A    between atoms: _333  and  _336
REMARK  133  A    between atoms: _336  and  _337
REMARK  134  A    between atoms: _337  and  _338
REMARK  135  A    between atoms: _338  and  _339
REMARK  136  A    between atoms: _348  and  _350
REMARK  137  A    between atoms: _350  and  _351
REMARK  138  A    between atoms: _350  and  _353
REMARK  139  A    between atoms: _353  and  _354
REMARK  140  A    between atoms: _360  and  _362
REMARK  141  A    between atoms: _362  and  _363
REMARK  142  A    between atoms: _362  and  _365
REMARK  143  A    between atoms: _365  and  _366
REMARK  144  A    between atoms: _368  and  _370
REMARK  145  A    between atoms: _370  and  _371
REMARK  146  A    between atoms: _374  and  _376
REMARK  147  A    between atoms: _376  and  _377
REMARK  148  A    between atoms: _376  and  _379
REMARK  149  A    between atoms: _379  and  _380
REMARK  150  A    between atoms: _385  and  _386
REMARK  151  A    between atoms: _388  and  _390
REMARK  152  A    between atoms: _390  and  _391
REMARK  153  A    between atoms: _390  and  _393
REMARK  154  A    between atoms: _393  and  _394
REMARK  155  A    between atoms: _394  and  _395
REMARK  156  A    between atoms: _397  and  _399
REMARK  157  A    between atoms: _399  and  _400
REMARK  158  A    between atoms: _399  and  _402
REMARK  159  A    between atoms: _402  and  _403
REMARK  160  A    between atoms: _408  and  _409
REMARK  161  A    between atoms: _411  and  _413
REMARK  162  A    between atoms: _413  and  _414
REMARK  163  A    between atoms: _413  and  _416
REMARK  164  A    between atoms: _416  and  _417
REMARK  165  A    between atoms: _420  and  _422
REMARK  166  A    between atoms: _422  and  _423
REMARK  167  A    between atoms: _422  and  _425
REMARK  168  A    between atoms: _425  and  _426
REMARK  169  A    between atoms: _426  and  _427
REMARK  170  A    between atoms: _429  and  _431
REMARK  171  A    between atoms: _431  and  _432
REMARK  172  A    between atoms: _431  and  _434
REMARK  173  A    between atoms: _434  and  _435
REMARK  174  A    between atoms: _439  and  _440
REMARK  175  A    between atoms: _445  and  _447
REMARK  176  A    between atoms: _447  and  _448
REMARK  177  A    between atoms: _447  and  _450
REMARK  178  A    between atoms: _450  and  _451
REMARK  179  A    between atoms: _455  and  _456
REMARK  180  A    between atoms: _461  and  _463
REMARK  181  A    between atoms: _463  and  _464
REMARK  182  A    between atoms: _463  and  _466
REMARK  183  A    between atoms: _466  and  _467
REMARK  184  A    between atoms: _470  and  _472
REMARK  185  A    between atoms: _472  and  _473
REMARK  186  A    between atoms: _472  and  _475
REMARK  187  A    between atoms: _475  and  _476
REMARK  188  A    between atoms: _479  and  _481
REMARK  189  A    between atoms: _481  and  _482
REMARK  190  A    between atoms: _481  and  _484
REMARK  191  A    between atoms: _484  and  _485
REMARK  192  A    between atoms: _487  and  _489
REMARK  193  A    between atoms: _489  and  _490
REMARK  194  A    between atoms: _492  and  _494
REMARK  195  A    between atoms: _494  and  _495
REMARK  196  A    between atoms: _494  and  _497
REMARK  197  A    between atoms: _497  and  _498
REMARK  198  A    between atoms: _503  and  _504
REMARK  199  A    between atoms: _506  and  _508
REMARK  200  A    between atoms: _508  and  _509
REMARK  201  A    between atoms: _508  and  _511
REMARK  202  A    between atoms: _511  and  _512
REMARK  203  A    between atoms: _515  and  _517
REMARK  204  A    between atoms: _517  and  _518
REMARK  205  A    between atoms: _517  and  _520
REMARK  206  A    between atoms: _520  and  _521
REMARK  207  A    between atoms: _524  and  _526
REMARK  208  A    between atoms: _526  and  _527
REMARK  209  A    between atoms: _529  and  _531
REMARK  210  A    between atoms: _531  and  _532
REMARK  211  A    between atoms: _531  and  _534
REMARK  212  A    between atoms: _534  and  _535
REMARK  213  A    between atoms: _535  and  _536
REMARK  214  A    between atoms: _541  and  _543
REMARK  215  A    between atoms: _543  and  _544
REMARK  216  A    between atoms: _543  and  _546
REMARK  217  A    between atoms: _546  and  _547
REMARK  218  A    between atoms: _550  and  _552
REMARK  219  A    between atoms: _552  and  _553
REMARK  220  A    between atoms: _552  and  _555
REMARK  221  A    between atoms: _558  and  _560
REMARK  222  A    between atoms: _560  and  _561
REMARK  223  A    between atoms: _560  and  _563
REMARK  224  A    between atoms: _566  and  _568
REMARK  225  A    between atoms: _568  and  _569
REMARK  226  A    between atoms: _572  and  _574
REMARK  227  A    between atoms: _574  and  _575
REMARK  228  A    between atoms: _574  and  _577
REMARK  229  A    between atoms: _577  and  _578
REMARK  230  A    between atoms: _578  and  _579
REMARK  231  A    between atoms: _579  and  _580
REMARK  232  A    between atoms: _589  and  _591
REMARK  233  A    between atoms: _591  and  _592
REMARK  234  A    between atoms: _591  and  _594
REMARK  235  A    between atoms: _594  and  _595
REMARK  236  A    between atoms: _600  and  _602
REMARK  237  A    between atoms: _602  and  _603
REMARK  238  A    between atoms: _602  and  _605
REMARK  239  A    between atoms: _605  and  _606
REMARK  240  A    between atoms: _610  and  _611
REMARK  241  A    between atoms: _616  and  _618
REMARK  242  A    between atoms: _618  and  _619
REMARK  243  A    between atoms: _618  and  _621
REMARK  244  A    between atoms: _621  and  _622
REMARK  245  A    between atoms: _624  and  _626
REMARK  246  A    between atoms: _626  and  _627
REMARK  247  A    between atoms: _626  and  _629
REMARK  248  A    between atoms: _629  and  _630
REMARK  249  A    between atoms: _633  and  _635
REMARK  250  A    between atoms: _635  and  _636
REMARK  251  A    between atoms: _635  and  _638
REMARK  252  A    between atoms: _638  and  _639
REMARK  253  A    between atoms: _639  and  _640
REMARK  254  A    between atoms: _640  and  _641
REMARK                            x       y       z     vdW  Elec       q    Type
REMARK                         _______ _______ _______ _____ _____    ______ ____
ROOT
ATOM      1  C   SER A   2     -25.601 -19.733  27.086  0.00  0.00    +0.243 C 
ATOM      2  O   SER A   2     -26.347 -19.975  28.036  0.00  0.00    -0.273 OA
ATOM      3  N   MET A   3     -26.051 -19.299  25.914  0.00  0.00    -0.297 N 
ATOM      4  H   MET A   3     -25.382 -19.107  25.141  0.00  0.00    +0.150 HD
ENDROOT
BRANCH   1   5
ATOM      5  CA  SER A   2     -24.094 -19.921  27.217  0.00  0.00    +0.178 C 
BRANCH   5   7
ATOM      6  C   LEU A   1     -23.108 -17.926  28.189  0.00  0.00    +0.238 C 
ATOM      7  N   SER A   2     -23.586 -19.153  28.343  0.00  0.00    -0.295 N 
ATOM      8  H   SER A   2     -23.598 -19.577  29.293  0.00  0.00    +0.150 HD
ATOM      9  O   LEU A   1     -23.063 -17.359  27.098  0.00  0.00    -0.274 OA
BRANCH   6  10
ATOM     10  CA  LEU A   1     -22.598 -17.241  29.454  0.00  0.00    +0.145 C 
BRANCH  10  11
ATOM     11  N   LEU A   1     -21.146 -17.357  29.482  0.00  0.00    -0.238 NA
ATOM     12  H   LEU A   1     -20.582 -16.772  28.833  0.00  0.00    +0.142 HD
ENDBRANCH  10  11
BRANCH  10  13
ATOM     13  CB  LEU A   1     -23.021 -15.764  29.453  0.00  0.00    +0.026 C 
BRANCH  13  14
ATOM     14  CG  LEU A   1     -22.382 -14.837  30.500  0.00  0.00    +0.002 C 
ATOM     15  CD2 LEU A   1     -22.709 -15.323  31.906  0.00  0.00    +0.000 C 
ATOM     16  CD1 LEU A   1     -22.891 -13.414  30.308  0.00  0.00    +0.000 C 
ENDBRANCH  13  14
ENDBRANCH  10  13
ENDBRANCH   6  10
ENDBRANCH   5   7
BRANCH   5  17
ATOM     17  CB  SER A   2     -23.777 -21.397  27.419  0.00  0.00    +0.166 C 
BRANCH  17  18
ATOM     18  OG  SER A   2     -24.118 -22.145  26.274  0.00  0.00    -0.380 OA
ATOM     19  H   SER A   2     -23.903 -23.099  26.429  0.00  0.00    +0.211 HD
ENDBRANCH  17  18
ENDBRANCH   5  17
ENDBRANCH   1   5
BRANCH   3  20
ATOM     20  CA  MET A   3     -27.475 -19.092  25.707  0.00  0.00    +0.150 C 
BRANCH  20  21
ATOM     21  C   MET A   3     -28.289 -20.351  25.955  0.00  0.00    +0.244 C 
ATOM     22  N   PRO A   4     -29.162 -20.312  26.971  0.00  0.00    -0.273 N 
ATOM     23  CD  PRO A   4     -29.429 -19.166  27.864  0.00  0.00    +0.094 C 
ATOM     24  CG  PRO A   4     -30.678 -19.610  28.614  0.00  0.00    +0.024 C 
ATOM     25  CB  PRO A   4     -30.487 -21.098  28.716  0.00  0.00    +0.030 C 
ATOM     26  CA  PRO A   4     -30.011 -21.449  27.315  0.00  0.00    +0.140 C 
ATOM     27  O   MET A   3     -28.135 -21.356  25.260  0.00  0.00    -0.273 OA
BRANCH  26  28
ATOM     28  C   PRO A   4     -31.157 -21.500  26.313  0.00  0.00    +0.227 C 
ATOM     29  O   PRO A   4     -31.683 -20.460  25.910  0.00  0.00    -0.286 OA
ENDBRANCH  26  28
ENDBRANCH  20  21
BRANCH  20  30
ATOM     30  CB  MET A   3     -27.750 -18.570  24.299  0.00  0.00    +0.041 C 
BRANCH  30  31
ATOM     31  CG  MET A   3     -27.641 -17.065  24.196  0.00  0.00    +0.060 C 
BRANCH  31  32
ATOM     32  SD  MET A   3     -28.796 -16.207  25.305  0.00  0.00    -0.139 S 
ATOM     33  CE  MET A   3     -27.815 -16.056  26.823  0.00  0.00    +0.069 C 
ENDBRANCH  31  32
ENDBRANCH  30  31
ENDBRANCH  20  30
ENDBRANCH   3  20
TORSDOF 14
REMARK  Name = ../refined-set-2016/3b2q/3b2q_pocket.pdb
REMARK  254 active torsions:
REMARK  status: ('A' for Active; 'I' for Inactive)
REMARK    1  A    between atoms: _2  and  _3
REMARK    2  A    between atoms: _8  and  _10
REMARK    3  A    between atoms: _10  and  _11
REMARK    4  A    between atoms: _10  and  _13
REMARK    5  A    between atoms: _13  and  _14
REMARK    6  A    between atoms: _17  and  _19
REMARK    7  A    between atoms: _19  and  _20
REMARK    8  A    between atoms: _19  and  _22
REMARK    9  A    between atoms: _22  and  _23
REMARK   10  A    between atoms: _29  and  _31
REMARK   11  A    between atoms: _31  and  _32
REMARK   12  A    between atoms: _31  and  _34
REMARK   13  A    between atoms: _34  and  _35
REMARK   14  A    between atoms: _37  and  _39
REMARK   15  A    between atoms: _39  and  _40
REMARK   16  A    between atoms: _43  and  _45
REMARK   17  A    between atoms: _45  and  _46
REMARK   18  A    between atoms: _45  and  _48
REMARK   19  A    between atoms: _48  and  _49
REMARK   20  A    between atoms: _51  and  _53
REMARK   21  A    between atoms: _53  and  _54
REMARK   22  A    between atoms: _56  and  _58
REMARK   23  A    between atoms: _58  and  _59
REMARK   24  A    between atoms: _58  and  _61
REMARK   25  A    between atoms: _61  and  _62
REMARK   26  A    between atoms: _65  and  _67
REMARK   27  A    between atoms: _67  and  _68
REMARK   28  A    between atoms: _67  and  _70
REMARK   29  A    between atoms: _70  and  _71
REMARK   30  A    between atoms: _74  and  _76
REMARK   31  A    between atoms: _76  and  _77
REMARK   32  A    between atoms: _76  and  _79
REMARK   33  A    between atoms: _79  and  _80
REMARK   34  A    between atoms: _82  and  _84
REMARK   35  A    between atoms: _84  and  _85
REMARK   36  A    between atoms: _84  and  _87
REMARK   37  A    between atoms: _87  and  _88
REMARK   38  A    between atoms: _88  and  _89
REMARK   39  A    between atoms: _92  and  _93
REMARK   40  A    between atoms: _99  and  _100
REMARK   41  A    between atoms: _105  and  _107
REMARK   42  A    between atoms: _107  and  _108
REMARK   43  A    between atoms: _107  and  _110
REMARK   44  A    between atoms: _110  and  _111
REMARK   45  A    between atoms: _114  and  _116
REMARK   46  A    between atoms: _116  and  _117
REMARK   47  A    between atoms: _116  and  _119
REMARK   48  A    between atoms: _119  and  _120
REMARK   49  A    between atoms: _123  and  _125
REMARK   50  A    between atoms: _125  and  _126
REMARK   51  A    between atoms: _125  and  _128
REMARK   52  A    between atoms: _128  and  _129
REMARK   53  A    between atoms: _131  and  _133
REMARK   54  A    between atoms: _133  and  _134
REMARK   55  A    between atoms: _136  and  _138
REMARK   56  A    between atoms: _138  and  _139
REMARK   57  A    between atoms: _138  and  _141
REMARK   58  A    between atoms: _141  and  _142
REMARK   59  A    between atoms: _147  and  _148
REMARK   60  A    between atoms: _150  and  _152
REMARK   61  A    between atoms: _152  and  _153
REMARK   62  A    between atoms: _152  and  _155
REMARK   63  A    between atoms: _155  and  _156
REMARK   64  A    between atoms: _159  and  _161
REMARK   65  A    between atoms: _161  and  _162
REMARK   66  A    between atoms: _161  and  _164
REMARK   67  A    between atoms: _164  and  _165
REMARK   68  A    between atoms: _168  and  _170
REMARK   69  A    between atoms: _170  and  _171
REMARK   70  A    between atoms: _173  and  _175
REMARK   71  A    between atoms: _175  and  _176
REMARK   72  A    between atoms: _175  and  _178
REMARK   73  A    between atoms: _178  and  _179
REMARK   74  A    between atoms: _179  and  _180
REMARK   75  A    between atoms: _185  and  _187
REMARK   76  A    between atoms: _187  and  _188
REMARK   77  A    between atoms: _187  and  _190
REMARK   78  A    between atoms: _190  and  _191
REMARK   79  A    between atoms: _194  and  _196
REMARK   80  A    between atoms: _196  and  _197
REMARK   81  A    between atoms: _196  and  _199
REMARK   82  A    between atoms: _202  and  _204
REMARK   83  A    between atoms: _204  and  _205
REMARK   84  A    between atoms: _204  and  _207
REMARK   85  A    between atoms: _210  and  _212
REMARK   86  A    between atoms: _212  and  _213
REMARK   87  A    between atoms: _216  and  _218
REMARK   88  A    between atoms: _218  and  _219
REMARK   89  A    between atoms: _218  and  _221
REMARK   90  A    between atoms: _221  and  _222
REMARK   91  A    between atoms: _222  and  _223
REMARK   92  A    between atoms: _223  and  _224
REMARK   93  A    between atoms: _233  and  _235
REMARK   94  A    between atoms: _235  and  _236
REMARK   95  A    between atoms: _235  and  _238
REMARK   96  A    between atoms: _238  and  _239
REMARK   97  A    between atoms: _239  and  _240
REMARK   98  A    between atoms: _243  and  _245
REMARK   99  A    between atoms: _245  and  _246
REMARK  100  A    between atoms: _245  and  _248
REMARK  101  A    between atoms: _248  and  _249
REMARK  102  A    between atoms: _252  and  _254
REMARK  103  A    between atoms: _254  and  _255
REMARK  104  A    between atoms: _254  and  _257
REMARK  105  A    between atoms: _257  and  _258
REMARK  106  A    between atoms: _263  and  _265
REMARK  107  A    between atoms: _265  and  _266
REMARK  108  A    between atoms: _265  and  _268
REMARK  109  A    between atoms: _268  and  _269
REMARK  110  A    between atoms: _269  and  _270
REMARK  111  A    between atoms: _270  and  _271
REMARK  112  A    between atoms: _281  and  _282
REMARK  113  A    between atoms: _287  and  _289
REMARK  114  A    between atoms: _289  and  _290
REMARK  115  A    between atoms: _289  and  _292
REMARK  116  A    between atoms: _292  and  _293
REMARK  117  A    between atoms: _298  and  _300
REMARK  118  A    between atoms: _300  and  _301
REMARK  119  A    between atoms: _300  and  _303
REMARK  120  A    between atoms: _303  and  _304
REMARK  121  A    between atoms: _308  and  _309
REMARK  122  A    between atoms: _314  and  _316
REMARK  123  A    between atoms: _316  and  _317
REMARK  124  A    between atoms: _316  and  _319
REMARK  125  A    between atoms: _319  and  _320
REMARK  126  A    between atoms: _322  and  _324
REMARK  127  A    between atoms: _324  and  _325
REMARK  128  A    between atoms: _324  and  _327
REMARK  129  A    between atoms: _327  and  _328
REMARK  130  A    between atoms: _331  and  _333
REMARK  131  A    between atoms: _333  and  _334
REMARK  132  A    between atoms: _333  and  _336
REMARK  133  A    between atoms: _336  and  _337
REMARK  134  A    between atoms: _337  and  _338
REMARK  135  A    between atoms: _338  and  _339
REMARK  136  A    between atoms: _348  and  _350
REMARK  137  A    between atoms: _350  and  _351
REMARK  138  A    between atoms: _350  and  _353
REMARK  139  A    between atoms: _353  and  _354
REMARK  140  A    between atoms: _360  and  _362
REMARK  141  A    between atoms: _362  and  _363
REMARK  142  A    between atoms: _362  and  _365
REMARK  143  A    between atoms: _365  and  _366
REMARK  144  A    between atoms: _368  and  _370
REMARK  145  A    between atoms: _370  and  _371
REMARK  146  A    between atoms: _374  and  _376
REMARK  147  A    between atoms: _376  and  _377
REMARK  148  A    between atoms: _376  and  _379
REMARK  149  A    between atoms: _379  and  _380
REMARK  150  A    between atoms: _385  and  _386
REMARK  151  A    between atoms: _388  and  _390
REMARK  152  A    between atoms: _390  and  _391
REMARK  153  A    between atoms: _390  and  _393
REMARK  154  A    between atoms: _393  and  _394
REMARK  155  A    between atoms: _394  and  _395
REMARK  156  A    between atoms: _397  and  _399
REMARK  157  A    between atoms: _399  and  _400
REMARK  158  A    between atoms: _399  and  _402
REMARK  159  A    between atoms: _402  and  _403
REMARK  160  A    between atoms: _408  and  _409
REMARK  161  A    between atoms: _411  and  _413
REMARK  162  A    between atoms: _413  and  _414
REMARK  163  A    between atoms: _413  and  _416
REMARK  164  A    between atoms: _416  and  _417
REMARK  165  A    between atoms: _420  and  _422
REMARK  166  A    between atoms: _422  and  _423
REMARK  167  A    between atoms: _422  and  _425
REMARK  168  A    between atoms: _425  and  _426
REMARK  169  A    between atoms: _426  and  _427
REMARK  170  A    between atoms: _429  and  _431
REMARK  171  A    between atoms: _431  and  _432
REMARK  172  A    between atoms: _431  and  _434
REMARK  173  A    between atoms: _434  and  _435
REMARK  174  A    between atoms: _439  and  _440
REMARK  175  A    between atoms: _445  and  _447
REMARK  176  A    between atoms: _447  and  _448
REMARK  177  A    between atoms: _447  and  _450
REMARK  178  A    between atoms: _450  and  _451
REMARK  179  A    between atoms: _455  and  _456
REMARK  180  A    between atoms: _461  and  _463
REMARK  181  A    between atoms: _463  and  _464
REMARK  182  A    between atoms: _463  and  _466
REMARK  183  A    between atoms: _466  and  _467
REMARK  184  A    between atoms: _470  and  _472
REMARK  185  A    between atoms: _472  and  _473
REMARK  186  A    between atoms: _472  and  _475
REMARK  187  A    between atoms: _475  and  _476
REMARK  188  A    between atoms: _479  and  _481
REMARK  189  A    between atoms: _481  and  _482
REMARK  190  A    between atoms: _481  and  _484
REMARK  191  A    between atoms: _484  and  _485
REMARK  192  A    between atoms: _487  and  _489
REMARK  193  A    between atoms: _489  and  _490
REMARK  194  A    between atoms: _492  and  _494
REMARK  195  A    between atoms: _494  and  _495
REMARK  196  A    between atoms: _494  and  _497
REMARK  197  A    between atoms: _497  and  _498
REMARK  198  A    between atoms: _503  and  _504
REMARK  199  A    between atoms: _506  and  _508
REMARK  200  A    between atoms: _508  and  _509
REMARK  201  A    between atoms: _508  and  _511
REMARK  202  A    between atoms: _511  and  _512
REMARK  203  A    between atoms: _515  and  _517
REMARK  204  A    between atoms: _517  and  _518
REMARK  205  A    between atoms: _517  and  _520
REMARK  206  A    between atoms: _520  and  _521
REMARK  207  A    between atoms: _524  and  _526
REMARK  208  A    between atoms: _526  and  _527
REMARK  209  A    between atoms: _529  and  _531
REMARK  210  A    between atoms: _531  and  _532
REMARK  211  A    between atoms: _531  and  _534
REMARK  212  A    between atoms: _534  and  _535
REMARK  213  A    between atoms: _535  and  _536
REMARK  214  A    between atoms: _541  and  _543
REMARK  215  A    between atoms: _543  and  _544
REMARK  216  A    between atoms: _543  and  _546
REMARK  217  A    between atoms: _546  and  _547
REMARK  218  A    between atoms: _550  and  _552
REMARK  219  A    between atoms: _552  and  _553
REMARK  220  A    between atoms: _552  and  _555
REMARK  221  A    between atoms: _558  and  _560
REMARK  222  A    between atoms: _560  and  _561
REMARK  223  A    between atoms: _560  and  _563
REMARK  224  A    between atoms: _566  and  _568
REMARK  225  A    between atoms: _568  and  _569
REMARK  226  A    between atoms: _572  and  _574
REMARK  227  A    between atoms: _574  and  _575
REMARK  228  A    between atoms: _574  and  _577
REMARK  229  A    between atoms: _577  and  _578
REMARK  230  A    between atoms: _578  and  _579
REMARK  231  A    between atoms: _579  and  _580
REMARK  232  A    between atoms: _589  and  _591
REMARK  233  A    between atoms: _591  and  _592
REMARK  234  A    between atoms: _591  and  _594
REMARK  235  A    between atoms: _594  and  _595
REMARK  236  A    between atoms: _600  and  _602
REMARK  237  A    between atoms: _602  and  _603
REMARK  238  A    between atoms: _602  and  _605
REMARK  239  A    between atoms: _605  and  _606
REMARK  240  A    between atoms: _610  and  _611
REMARK  241  A    between atoms: _616  and  _618
REMARK  242  A    between atoms: _618  and  _619
REMARK  243  A    between atoms: _618  and  _621
REMARK  244  A    between atoms: _621  and  _622
REMARK  245  A    between atoms: _624  and  _626
REMARK  246  A    between atoms: _626  and  _627
REMARK  247  A    between atoms: _626  and  _629
REMARK  248  A    between atoms: _629  and  _630
REMARK  249  A    between atoms: _633  and  _635
REMARK  250  A    between atoms: _635  and  _636
REMARK  251  A    between atoms: _635  and  _638
REMARK  252  A    between atoms: _638  and  _639
REMARK  253  A    between atoms: _639  and  _640
REMARK  254  A    between atoms: _640  and  _641
REMARK                            x       y       z     vdW  Elec       q    Type
REMARK                         _______ _______ _______ _____ _____    ______ ____
ROOT
ATOM      1  C   SER A   4     -26.633  -8.497  32.309  0.00  0.00    +0.243 C 
ATOM      2  N   GLY A   5     -26.894  -8.711  33.595  0.00  0.00    -0.295 N 
ATOM      3  H   GLY A   5     -27.590  -9.435  33.867  0.00  0.00    +0.150 HD
ATOM      4  O   SER A   4     -25.826  -7.655  31.925  0.00  0.00    -0.273 OA
ENDROOT
BRANCH   1   5
ATOM      5  CA  SER A   4     -27.390  -9.362  31.305  0.00  0.00    +0.178 C 
BRANCH   5   8
ATOM      6  C   LEU A   3     -27.072 -11.538  32.360  0.00  0.00    +0.241 C 
ATOM      7  O   LEU A   3     -25.852 -11.410  32.359  0.00  0.00    -0.273 OA
ATOM      8  N   SER A   4     -27.895 -10.601  31.890  0.00  0.00    -0.295 N 
ATOM      9  H   SER A   4     -28.922 -10.756  31.941  0.00  0.00    +0.150 HD
BRANCH   6  10
ATOM     10  CA  LEU A   3     -27.711 -12.802  32.928  0.00  0.00    +0.149 C 
BRANCH  10  13
ATOM     11  C   ASP A   2     -29.836 -12.310  33.964  0.00  0.00    +0.241 C 
ATOM     12  O   ASP A   2     -29.269 -11.934  34.982  0.00  0.00    -0.273 OA
ATOM     13  N   LEU A   3     -29.167 -12.753  32.908  0.00  0.00    -0.297 N 
ATOM     14  H   LEU A   3     -29.684 -13.067  32.062  0.00  0.00    +0.150 HD
BRANCH  11  15
ATOM     15  CA  ASP A   2     -31.361 -12.287  33.878  0.00  0.00    +0.160 C 
BRANCH  15  17
ATOM     16  C   PRO A   1     -31.502 -14.202  35.384  0.00  0.00    +0.239 C 
ATOM     17  N   ASP A   2     -31.883 -12.970  35.061  0.00  0.00    -0.297 N 
ATOM     18  H   ASP A   2     -32.571 -12.478  35.666  0.00  0.00    +0.150 HD
ATOM     19  O   PRO A   1     -30.711 -14.858  34.707  0.00  0.00    -0.274 OA
BRANCH  16  24
ATOM     20  N   PRO A   1     -32.360 -16.228  36.411  0.00  0.00    -0.210 NA
ATOM     21  CD  PRO A   1     -31.708 -17.053  37.444  0.00  0.00    +0.089 C 
ATOM     22  CG  PRO A   1     -31.507 -16.055  38.563  0.00  0.00    +0.021 C 
ATOM     23  CB  PRO A   1     -31.130 -14.813  37.813  0.00  0.00    +0.028 C 
ATOM     24  CA  PRO A   1     -32.114 -14.804  36.646  0.00  0.00    +0.149 C 
ENDBRANCH  16  24
ENDBRANCH  15  17
BRANCH  15  25
ATOM     25  CB  ASP A   2     -31.857 -10.836  33.864  0.00  0.00    +0.143 C 
BRANCH  25  26
ATOM     26  CG  ASP A   2     -31.658 -10.150  32.518  0.00  0.00    +0.367 C 
ATOM     27  OD2 ASP A   2     -32.362  -9.150  32.270  0.00  0.00    -0.246 OA
ATOM     28  OD1 ASP A   2     -30.801 -10.590  31.719  0.00  0.00    -0.246 OA
ENDBRANCH  25  26
ENDBRANCH  15  25
ENDBRANCH  11  15
ENDBRANCH  10  13
BRANCH  10  29
ATOM     29  CB  LEU A   3     -27.211 -14.027  32.151  0.00  0.00    +0.029 C 
BRANCH  29  30
ATOM     30  CG  LEU A   3     -27.654 -15.403  32.670  0.00  0.00    +0.002 C 
ATOM     31  CD2 LEU A   3     -27.172 -15.598  34.094  0.00  0.00    +0.000 C 
ATOM     32  CD1 LEU A   3     -27.106 -16.498  31.773  0.00  0.00    +0.000 C 
ENDBRANCH  29  30
ENDBRANCH  10  29
ENDBRANCH   6  10
ENDBRANCH   5   8
BRANCH   5  33
ATOM     33  CB  SER A   4     -28.538  -8.550  30.687  0.00  0.00    +0.166 C 
BRANCH  33  34
ATOM     34  OG  SER A   4     -29.365  -7.964  31.677  0.00  0.00    -0.380 OA
ATOM     35  H   SER A   4     -29.758  -8.676  32.241  0.00  0.00    +0.211 HD
ENDBRANCH  33  34
ENDBRANCH   5  33
ENDBRANCH   1   5
BRANCH   2  36
ATOM     36  CA  GLY A   5     -26.216  -7.943  34.623  0.00  0.00    +0.176 C 
BRANCH  36  37
ATOM     37  C   GLY A   5     -24.720  -8.203  34.657  0.00  0.00    +0.243 C 
ATOM     38  O   GLY A   5     -23.953  -7.377  35.153  0.00  0.00    -0.273 OA
ATOM     39  N   TYR A   6     -24.302  -9.345  34.119  0.00  0.00    -0.297 N 
ATOM     40  H   TYR A   6     -25.003  -9.992  33.705  0.00  0.00    +0.150 HD
BRANCH  39  41
ATOM     41  CA  TYR A   6     -22.889  -9.721  34.091  0.00  0.00    +0.153 C 
BRANCH  41  42
ATOM     42  C   TYR A   6     -22.155  -9.023  32.943  0.00  0.00    +0.241 C 
ATOM     43  O   TYR A   6     -20.933  -9.129  32.815  0.00  0.00    -0.273 OA
ATOM     44  N   ILE A   7     -22.904  -8.309  32.110  0.00  0.00    -0.297 N 
ATOM     45  H   ILE A   7     -23.927  -8.238  32.281  0.00  0.00    +0.150 HD
BRANCH  44  46
ATOM     46  CA  ILE A   7     -22.324  -7.624  30.963  0.00  0.00    +0.149 C 
BRANCH  46  47
ATOM     47  C   ILE A   7     -22.328  -6.104  31.137  0.00  0.00    +0.241 C 
ATOM     48  N   THR A   8     -21.233  -5.571  31.667  0.00  0.00    -0.296 N 
ATOM     49  H   THR A   8     -20.439  -6.190  31.927  0.00  0.00    +0.150 HD
ATOM     50  O   ILE A   7     -23.302  -5.427  30.796  0.00  0.00    -0.273 OA
BRANCH  48  51
ATOM     51  CA  THR A   8     -21.123  -4.134  31.892  0.00  0.00    +0.164 C 
BRANCH  51  52
ATOM     52  CB  THR A   8     -21.161  -3.803  33.400  0.00  0.00    +0.136 C 
ATOM     53  CG2 THR A   8     -22.398  -4.409  34.048  0.00  0.00    +0.034 C 
BRANCH  52  54
ATOM     54  OG1 THR A   8     -19.994  -4.346  34.037  0.00  0.00    -0.382 OA
ATOM     55  HG1 THR A   8     -20.018  -4.134  35.004  0.00  0.00    +0.210 HD
ENDBRANCH  52  54
ENDBRANCH  51  52
BRANCH  51  56
ATOM     56  C   THR A   8     -19.821  -3.581  31.325  0.00  0.00    +0.229 C 
ATOM     57  O   THR A   8     -19.680  -2.376  31.134  0.00  0.00    -0.286 OA
ENDBRANCH  51  56
ENDBRANCH  48  51
ENDBRANCH  46  47
BRANCH  46  58
ATOM     58  CB  ILE A   7     -23.096  -8.010  29.690  0.00  0.00    +0.027 C 
ATOM     59  CG2 ILE A   7     -22.375  -7.498  28.459  0.00  0.00    +0.002 C 
BRANCH  58  60
ATOM     60  CG1 ILE A   7     -23.241  -9.532  29.639  0.00  0.00    +0.002 C 
ATOM     61  CD1 ILE A   7     -24.203 -10.030  28.598  0.00  0.00    +0.000 C 
ENDBRANCH  58  60
ENDBRANCH  46  58
ENDBRANCH  44  46
ENDBRANCH  41  42
BRANCH  41  62
ATOM     62  CB  TYR A   6     -22.762 -11.234  33.908  0.00  0.00    +0.055 C 
BRANCH  62  63
ATOM     63  CG  TYR A   6     -21.890 -11.920  34.932  0.00  0.00    -0.020 A 
ATOM     64  CD2 TYR A   6     -22.422 -12.880  35.792  0.00  0.00    -0.001 A 
ATOM     65  CE2 TYR A   6     -21.624 -13.522  36.734  0.00  0.00    +0.036 A 
ATOM     66  CZ  TYR A   6     -20.282 -13.205  36.820  0.00  0.00    +0.134 A 
ATOM     67  CE1 TYR A   6     -19.726 -12.254  35.978  0.00  0.00    +0.036 A 
ATOM     68  CD1 TYR A   6     -20.534 -11.616  35.039  0.00  0.00    -0.001 A 
BRANCH  66  69
ATOM     69  OH  TYR A   6     -19.498 -13.839  37.742  0.00  0.00    -0.506 OA
ATOM     70  HH  TYR A   6     -20.049 -14.481  38.256  0.00  0.00    +0.292 HD
ENDBRANCH  66  69
ENDBRANCH  62  63
ENDBRANCH  41  62
ENDBRANCH  39  41
ENDBRANCH  36  37
ENDBRANCH   2  36
TORSDOF 28
REMARK  Name = ../refined-set-2016/3b2q/3b2q_pocket.pdb
REMARK  254 active torsions:
REMARK  status: ('A' for Active; 'I' for Inactive)
REMARK    1  A    between atoms: _2  and  _3
REMARK    2  A    between atoms: _8  and  _10
REMARK    3  A    between atoms: _10  and  _11
REMARK    4  A    between atoms: _10  and  _13
REMARK    5  A    between atoms: _13  and  _14
REMARK    6  A    between atoms: _17  and  _19
REMARK    7  A    between atoms: _19  and  _20
REMARK    8  A    between atoms: _19  and  _22
REMARK    9  A    between atoms: _22  and  _23
REMARK   10  A    between atoms: _29  and  _31
REMARK   11  A    between atoms: _31  and  _32
REMARK   12  A    between atoms: _31  and  _34
REMARK   13  A    between atoms: _34  and  _35
REMARK   14  A    between atoms: _37  and  _39
REMARK   15  A    between atoms: _39  and  _40
REMARK   16  A    between atoms: _43  and  _45
REMARK   17  A    between atoms: _45  and  _46
REMARK   18  A    between atoms: _45  and  _48
REMARK   19  A    between atoms: _48  and  _49
REMARK   20  A    between atoms: _51  and  _53
REMARK   21  A    between atoms: _53  and  _54
REMARK   22  A    between atoms: _56  and  _58
REMARK   23  A    between atoms: _58  and  _59
REMARK   24  A    between atoms: _58  and  _61
REMARK   25  A    between atoms: _61  and  _62
REMARK   26  A    between atoms: _65  and  _67
REMARK   27  A    between atoms: _67  and  _68
REMARK   28  A    between atoms: _67  and  _70
REMARK   29  A    between atoms: _70  and  _71
REMARK   30  A    between atoms: _74  and  _76
REMARK   31  A    between atoms: _76  and  _77
REMARK   32  A    between atoms: _76  and  _79
REMARK   33  A    between atoms: _79  and  _80
REMARK   34  A    between atoms: _82  and  _84
REMARK   35  A    between atoms: _84  and  _85
REMARK   36  A    between atoms: _84  and  _87
REMARK   37  A    between atoms: _87  and  _88
REMARK   38  A    between atoms: _88  and  _89
REMARK   39  A    between atoms: _92  and  _93
REMARK   40  A    between atoms: _99  and  _100
REMARK   41  A    between atoms: _105  and  _107
REMARK   42  A    between atoms: _107  and  _108
REMARK   43  A    between atoms: _107  and  _110
REMARK   44  A    between atoms: _110  and  _111
REMARK   45  A    between atoms: _114  and  _116
REMARK   46  A    between atoms: _116  and  _117
REMARK   47  A    between atoms: _116  and  _119
REMARK   48  A    between atoms: _119  and  _120
REMARK   49  A    between atoms: _123  and  _125
REMARK   50  A    between atoms: _125  and  _126
REMARK   51  A    between atoms: _125  and  _128
REMARK   52  A    between atoms: _128  and  _129
REMARK   53  A    between atoms: _131  and  _133
REMARK   54  A    between atoms: _133  and  _134
REMARK   55  A    between atoms: _136  and  _138
REMARK   56  A    between atoms: _138  and  _139
REMARK   57  A    between atoms: _138  and  _141
REMARK   58  A    between atoms: _141  and  _142
REMARK   59  A    between atoms: _147  and  _148
REMARK   60  A    between atoms: _150  and  _152
REMARK   61  A    between atoms: _152  and  _153
REMARK   62  A    between atoms: _152  and  _155
REMARK   63  A    between atoms: _155  and  _156
REMARK   64  A    between atoms: _159  and  _161
REMARK   65  A    between atoms: _161  and  _162
REMARK   66  A    between atoms: _161  and  _164
REMARK   67  A    between atoms: _164  and  _165
REMARK   68  A    between atoms: _168  and  _170
REMARK   69  A    between atoms: _170  and  _171
REMARK   70  A    between atoms: _173  and  _175
REMARK   71  A    between atoms: _175  and  _176
REMARK   72  A    between atoms: _175  and  _178
REMARK   73  A    between atoms: _178  and  _179
REMARK   74  A    between atoms: _179  and  _180
REMARK   75  A    between atoms: _185  and  _187
REMARK   76  A    between atoms: _187  and  _188
REMARK   77  A    between atoms: _187  and  _190
REMARK   78  A    between atoms: _190  and  _191
REMARK   79  A    between atoms: _194  and  _196
REMARK   80  A    between atoms: _196  and  _197
REMARK   81  A    between atoms: _196  and  _199
REMARK   82  A    between atoms: _202  and  _204
REMARK   83  A    between atoms: _204  and  _205
REMARK   84  A    between atoms: _204  and  _207
REMARK   85  A    between atoms: _210  and  _212
REMARK   86  A    between atoms: _212  and  _213
REMARK   87  A    between atoms: _216  and  _218
REMARK   88  A    between atoms: _218  and  _219
REMARK   89  A    between atoms: _218  and  _221
REMARK   90  A    between atoms: _221  and  _222
REMARK   91  A    between atoms: _222  and  _223
REMARK   92  A    between atoms: _223  and  _224
REMARK   93  A    between atoms: _233  and  _235
REMARK   94  A    between atoms: _235  and  _236
REMARK   95  A    between atoms: _235  and  _238
REMARK   96  A    between atoms: _238  and  _239
REMARK   97  A    between atoms: _239  and  _240
REMARK   98  A    between atoms: _243  and  _245
REMARK   99  A    between atoms: _245  and  _246
REMARK  100  A    between atoms: _245  and  _248
REMARK  101  A    between atoms: _248  and  _249
REMARK  102  A    between atoms: _252  and  _254
REMARK  103  A    between atoms: _254  and  _255
REMARK  104  A    between atoms: _254  and  _257
REMARK  105  A    between atoms: _257  and  _258
REMARK  106  A    between atoms: _263  and  _265
REMARK  107  A    between atoms: _265  and  _266
REMARK  108  A    between atoms: _265  and  _268
REMARK  109  A    between atoms: _268  and  _269
REMARK  110  A    between atoms: _269  and  _270
REMARK  111  A    between atoms: _270  and  _271
REMARK  112  A    between atoms: _281  and  _282
REMARK  113  A    between atoms: _287  and  _289
REMARK  114  A    between atoms: _289  and  _290
REMARK  115  A    between atoms: _289  and  _292
REMARK  116  A    between atoms: _292  and  _293
REMARK  117  A    between atoms: _298  and  _300
REMARK  118  A    between atoms: _300  and  _301
REMARK  119  A    between atoms: _300  and  _303
REMARK  120  A    between atoms: _303  and  _304
REMARK  121  A    between atoms: _308  and  _309
REMARK  122  A    between atoms: _314  and  _316
REMARK  123  A    between atoms: _316  and  _317
REMARK  124  A    between atoms: _316  and  _319
REMARK  125  A    between atoms: _319  and  _320
REMARK  126  A    between atoms: _322  and  _324
REMARK  127  A    between atoms: _324  and  _325
REMARK  128  A    between atoms: _324  and  _327
REMARK  129  A    between atoms: _327  and  _328
REMARK  130  A    between atoms: _331  and  _333
REMARK  131  A    between atoms: _333  and  _334
REMARK  132  A    between atoms: _333  and  _336
REMARK  133  A    between atoms: _336  and  _337
REMARK  134  A    between atoms: _337  and  _338
REMARK  135  A    between atoms: _338  and  _339
REMARK  136  A    between atoms: _348  and  _350
REMARK  137  A    between atoms: _350  and  _351
REMARK  138  A    between atoms: _350  and  _353
REMARK  139  A    between atoms: _353  and  _354
REMARK  140  A    between atoms: _360  and  _362
REMARK  141  A    between atoms: _362  and  _363
REMARK  142  A    between atoms: _362  and  _365
REMARK  143  A    between atoms: _365  and  _366
REMARK  144  A    between atoms: _368  and  _370
REMARK  145  A    between atoms: _370  and  _371
REMARK  146  A    between atoms: _374  and  _376
REMARK  147  A    between atoms: _376  and  _377
REMARK  148  A    between atoms: _376  and  _379
REMARK  149  A    between atoms: _379  and  _380
REMARK  150  A    between atoms: _385  and  _386
REMARK  151  A    between atoms: _388  and  _390
REMARK  152  A    between atoms: _390  and  _391
REMARK  153  A    between atoms: _390  and  _393
REMARK  154  A    between atoms: _393  and  _394
REMARK  155  A    between atoms: _394  and  _395
REMARK  156  A    between atoms: _397  and  _399
REMARK  157  A    between atoms: _399  and  _400
REMARK  158  A    between atoms: _399  and  _402
REMARK  159  A    between atoms: _402  and  _403
REMARK  160  A    between atoms: _408  and  _409
REMARK  161  A    between atoms: _411  and  _413
REMARK  162  A    between atoms: _413  and  _414
REMARK  163  A    between atoms: _413  and  _416
REMARK  164  A    between atoms: _416  and  _417
REMARK  165  A    between atoms: _420  and  _422
REMARK  166  A    between atoms: _422  and  _423
REMARK  167  A    between atoms: _422  and  _425
REMARK  168  A    between atoms: _425  and  _426
REMARK  169  A    between atoms: _426  and  _427
REMARK  170  A    between atoms: _429  and  _431
REMARK  171  A    between atoms: _431  and  _432
REMARK  172  A    between atoms: _431  and  _434
REMARK  173  A    between atoms: _434  and  _435
REMARK  174  A    between atoms: _439  and  _440
REMARK  175  A    between atoms: _445  and  _447
REMARK  176  A    between atoms: _447  and  _448
REMARK  177  A    between atoms: _447  and  _450
REMARK  178  A    between atoms: _450  and  _451
REMARK  179  A    between atoms: _455  and  _456
REMARK  180  A    between atoms: _461  and  _463
REMARK  181  A    between atoms: _463  and  _464
REMARK  182  A    between atoms: _463  and  _466
REMARK  183  A    between atoms: _466  and  _467
REMARK  184  A    between atoms: _470  and  _472
REMARK  185  A    between atoms: _472  and  _473
REMARK  186  A    between atoms: _472  and  _475
REMARK  187  A    between atoms: _475  and  _476
REMARK  188  A    between atoms: _479  and  _481
REMARK  189  A    between atoms: _481  and  _482
REMARK  190  A    between atoms: _481  and  _484
REMARK  191  A    between atoms: _484  and  _485
REMARK  192  A    between atoms: _487  and  _489
REMARK  193  A    between atoms: _489  and  _490
REMARK  194  A    between atoms: _492  and  _494
REMARK  195  A    between atoms: _494  and  _495
REMARK  196  A    between atoms: _494  and  _497
REMARK  197  A    between atoms: _497  and  _498
REMARK  198  A    between atoms: _503  and  _504
REMARK  199  A    between atoms: _506  and  _508
REMARK  200  A    between atoms: _508  and  _509
REMARK  201  A    between atoms: _508  and  _511
REMARK  202  A    between atoms: _511  and  _512
REMARK  203  A    between atoms: _515  and  _517
REMARK  204  A    between atoms: _517  and  _518
REMARK  205  A    between atoms: _517  and  _520
REMARK  206  A    between atoms: _520  and  _521
REMARK  207  A    between atoms: _524  and  _526
REMARK  208  A    between atoms: _526  and  _527
REMARK  209  A    between atoms: _529  and  _531
REMARK  210  A    between atoms: _531  and  _532
REMARK  211  A    between atoms: _531  and  _534
REMARK  212  A    between atoms: _534  and  _535
REMARK  213  A    between atoms: _535  and  _536
REMARK  214  A    between atoms: _541  and  _543
REMARK  215  A    between atoms: _543  and  _544
REMARK  216  A    between atoms: _543  and  _546
REMARK  217  A    between atoms: _546  and  _547
REMARK  218  A    between atoms: _550  and  _552
REMARK  219  A    between atoms: _552  and  _553
REMARK  220  A    between atoms: _552  and  _555
REMARK  221  A    between atoms: _558  and  _560
REMARK  222  A    between atoms: _560  and  _561
REMARK  223  A    between atoms: _560  and  _563
REMARK  224  A    between atoms: _566  and  _568
REMARK  225  A    between atoms: _568  and  _569
REMARK  226  A    between atoms: _572  and  _574
REMARK  227  A    between atoms: _574  and  _575
REMARK  228  A    between atoms: _574  and  _577
REMARK  229  A    between atoms: _577  and  _578
REMARK  230  A    between atoms: _578  and  _579
REMARK  231  A    between atoms: _579  and  _580
REMARK  232  A    between atoms: _589  and  _591
REMARK  233  A    between atoms: _591  and  _592
REMARK  234  A    between atoms: _591  and  _594
REMARK  235  A    between atoms: _594  and  _595
REMARK  236  A    between atoms: _600  and  _602
REMARK  237  A    between atoms: _602  and  _603
REMARK  238  A    between atoms: _602  and  _605
REMARK  239  A    between atoms: _605  and  _606
REMARK  240  A    between atoms: _610  and  _611
REMARK  241  A    between atoms: _616  and  _618
REMARK  242  A    between atoms: _618  and  _619
REMARK  243  A    between atoms: _618  and  _621
REMARK  244  A    between atoms: _621  and  _622
REMARK  245  A    between atoms: _624  and  _626
REMARK  246  A    between atoms: _626  and  _627
REMARK  247  A    between atoms: _626  and  _629
REMARK  248  A    between atoms: _629  and  _630
REMARK  249  A    between atoms: _633  and  _635
REMARK  250  A    between atoms: _635  and  _636
REMARK  251  A    between atoms: _635  and  _638
REMARK  252  A    between atoms: _638  and  _639
REMARK  253  A    between atoms: _639  and  _640
REMARK  254  A    between atoms: _640  and  _641
REMARK                            x       y       z     vdW  Elec       q    Type
REMARK                         _______ _______ _______ _____ _____    ______ ____
ROOT
ATOM      1  CA  ARG A   7     -21.929 -20.407  14.943  0.00  0.00    +0.149 C 
ENDROOT
BRANCH   1   2
ATOM      2  C   ARG A   7     -21.530 -20.277  13.476  0.00  0.00    +0.241 C 
ATOM      3  N   GLU A   8     -21.706 -19.091  12.901  0.00  0.00    -0.297 N 
ATOM      4  H   GLU A   8     -22.110 -18.307  13.452  0.00  0.00    +0.150 HD
ATOM      5  O   ARG A   7     -21.062 -21.237  12.875  0.00  0.00    -0.273 OA
BRANCH   3   6
ATOM      6  CA  GLU A   8     -21.338 -18.877  11.503  0.00  0.00    +0.149 C 
BRANCH   6   7
ATOM      7  C   GLU A   8     -19.872 -19.238  11.264  0.00  0.00    +0.241 C 
ATOM      8  N   LEU A   9     -18.989 -18.695  12.091  0.00  0.00    -0.297 N 
ATOM      9  H   LEU A   9     -19.312 -18.069  12.856  0.00  0.00    +0.150 HD
ATOM     10  O   GLU A   8     -19.540 -19.982  10.341  0.00  0.00    -0.273 OA
BRANCH   8  11
ATOM     11  CA  LEU A   9     -17.571 -18.972  11.933  0.00  0.00    +0.149 C 
BRANCH  11  12
ATOM     12  C   LEU A   9     -17.296 -20.432  12.257  0.00  0.00    +0.241 C 
ATOM     13  N   HIS A  10     -18.019 -20.955  13.238  0.00  0.00    -0.297 N 
ATOM     14  H   HIS A  10     -18.713 -20.356  13.729  0.00  0.00    +0.150 HD
ATOM     15  O   LEU A   9     -16.464 -21.071  11.627  0.00  0.00    -0.273 OA
BRANCH  13  16
ATOM     16  CA  HIS A  10     -17.869 -22.339  13.645  0.00  0.00    +0.155 C 
BRANCH  16  17
ATOM     17  C   HIS A  10     -18.219 -23.270  12.486  0.00  0.00    +0.241 C 
ATOM     18  O   HIS A  10     -17.533 -24.265  12.249  0.00  0.00    -0.273 OA
ATOM     19  N   ARG A  11     -19.291 -22.951  11.770  0.00  0.00    -0.298 N 
ATOM     20  H   ARG A  11     -19.840 -22.103  12.018  0.00  0.00    +0.150 HD
BRANCH  19  21
ATOM     21  CA  ARG A  11     -19.708 -23.774  10.641  0.00  0.00    +0.137 C 
BRANCH  21  22
ATOM     22  C   ARG A  11     -18.760 -23.645   9.461  0.00  0.00    +0.227 C 
ATOM     23  O   ARG A  11     -18.728 -24.507   8.594  0.00  0.00    -0.286 OA
ENDBRANCH  21  22
BRANCH  21  24
ATOM     24  CB  ARG A  11     -21.129 -23.420  10.221  0.00  0.00    +0.031 C 
BRANCH  24  25
ATOM     25  CG  ARG A  11     -22.155 -23.797  11.273  0.00  0.00    +0.045 C 
BRANCH  25  26
ATOM     26  CD  ARG A  11     -23.554 -23.391  10.862  0.00  0.00    +0.174 C 
BRANCH  26  27
ATOM     27  NE  ARG A  11     -23.976 -24.058   9.637  0.00  0.00    -0.265 N 
ATOM     28  HE  ARG A  11     -23.290 -24.671   9.152  0.00  0.00    +0.259 HD
ATOM     29  CZ  ARG A  11     -25.185 -23.929   9.103  0.00  0.00    +0.342 C 
ATOM     30  NH2 ARG A  11     -26.087 -23.153   9.691  0.00  0.00    -0.292 N 
ATOM     31 HH21 ARG A  11     -25.846 -22.648  10.568  0.00  0.00    +0.255 HD
ATOM     32 HH22 ARG A  11     -27.035 -23.050   9.275  0.00  0.00    +0.255 HD
ATOM     33  NH1 ARG A  11     -25.496 -24.580   7.989  0.00  0.00    -0.292 N 
ATOM     34 HH11 ARG A  11     -26.444 -24.477   7.574  0.00  0.00    +0.255 HD
ATOM     35 HH12 ARG A  11     -24.792 -25.194   7.531  0.00  0.00    +0.255 HD
ENDBRANCH  26  27
ENDBRANCH  25  26
ENDBRANCH  24  25
ENDBRANCH  21  24
ENDBRANCH  19  21
ENDBRANCH  16  17
BRANCH  16  36
ATOM     36  CB  HIS A  10     -18.785 -22.639  14.827  0.00  0.00    +0.076 C 
BRANCH  36  37
ATOM     37  CG  HIS A  10     -18.691 -24.049  15.317  0.00  0.00    +0.082 A 
ATOM     38  ND1 HIS A  10     -17.562 -24.549  15.932  0.00  0.00    -0.227 NA
ATOM     39  CE1 HIS A  10     -17.758 -25.818  16.238  0.00  0.00    +0.199 A 
ATOM     40  NE2 HIS A  10     -18.972 -26.160  15.844  0.00  0.00    -0.221 NA
ATOM     41  CD2 HIS A  10     -19.576 -25.072  15.265  0.00  0.00    +0.115 A 
ENDBRANCH  36  37
ENDBRANCH  16  36
ENDBRANCH  13  16
ENDBRANCH  11  12
BRANCH  11  42
ATOM     42  CB  LEU A   9     -16.757 -18.049  12.839  0.00  0.00    +0.029 C 
BRANCH  42  43
ATOM     43  CG  LEU A   9     -16.913 -16.571  12.463  0.00  0.00    +0.002 C 
ATOM     44  CD2 LEU A   9     -16.319 -15.696  13.527  0.00  0.00    +0.000 C 
ATOM     45  CD1 LEU A   9     -16.249 -16.316  11.120  0.00  0.00    +0.000 C 
ENDBRANCH  42  43
ENDBRANCH  11  42
ENDBRANCH   8  11
ENDBRANCH   6   7
BRANCH   6  46
ATOM     46  CB  GLU A   8     -21.549 -17.417  11.102  0.00  0.00    +0.041 C 
BRANCH  46  47
ATOM     47  CG  GLU A   8     -21.209 -17.139   9.649  0.00  0.00    +0.116 C 
BRANCH  47  48
ATOM     48  CD  GLU A   8     -20.929 -15.675   9.373  0.00  0.00    +0.365 C 
ATOM     49  OE2 GLU A   8     -21.608 -14.804   9.959  0.00  0.00    -0.246 OA
ATOM     50  OE1 GLU A   8     -20.030 -15.397   8.553  0.00  0.00    -0.246 OA
ENDBRANCH  47  48
ENDBRANCH  46  47
ENDBRANCH   6  46
ENDBRANCH   3   6
ENDBRANCH   1   2
BRANCH   1  52
ATOM     51  C   ALA A   6     -20.551 -18.603  15.776  0.00  0.00    +0.241 C 
ATOM     52  N   ARG A   7     -21.756 -19.142  15.637  0.00  0.00    -0.297 N 
ATOM     53  H   ARG A   7     -22.586 -18.653  16.029  0.00  0.00    +0.150 HD
ATOM     54  O   ALA A   6     -19.529 -19.126  15.328  0.00  0.00    -0.273 OA
BRANCH  51  55
ATOM     55  CA  ALA A   6     -20.500 -17.265  16.506  0.00  0.00    +0.149 C 
ATOM     56  CB  ALA A   6     -20.306 -16.138  15.490  0.00  0.00    +0.031 C 
BRANCH  55  59
ATOM     57  C   VAL A   5     -19.843 -17.064  18.842  0.00  0.00    +0.241 C 
ATOM     58  O   VAL A   5     -21.009 -17.135  19.215  0.00  0.00    -0.273 OA
ATOM     59  N   ALA A   6     -19.494 -17.142  17.560  0.00  0.00    -0.297 N 
ATOM     60  H   ALA A   6     -18.487 -17.115  17.303  0.00  0.00    +0.150 HD
BRANCH  57  61
ATOM     61  CA  VAL A   5     -18.719 -16.873  19.862  0.00  0.00    +0.149 C 
BRANCH  61  63
ATOM     62  C   VAL A   4     -18.530 -14.464  20.242  0.00  0.00    +0.241 C 
ATOM     63  N   VAL A   5     -19.055 -15.642  20.566  0.00  0.00    -0.297 N 
ATOM     64  H   VAL A   5     -19.733 -15.687  21.354  0.00  0.00    +0.150 HD
ATOM     65  O   VAL A   4     -17.683 -14.315  19.360  0.00  0.00    -0.273 OA
BRANCH  62  66
ATOM     66  CA  VAL A   4     -19.032 -13.278  21.060  0.00  0.00    +0.149 C 
BRANCH  66  69
ATOM     67  C   ILE A   3     -17.642 -12.727  22.959  0.00  0.00    +0.241 C 
ATOM     68  O   ILE A   3     -18.151 -13.626  23.630  0.00  0.00    -0.273 OA
ATOM     69  N   VAL A   4     -17.983 -12.498  21.698  0.00  0.00    -0.297 N 
ATOM     70  H   VAL A   4     -17.496 -11.753  21.160  0.00  0.00    +0.150 HD
BRANCH  67  71
ATOM     71  CA  ILE A   3     -16.562 -11.826  23.557  0.00  0.00    +0.149 C 
BRANCH  71  73
ATOM     72  C   GLN A   2     -17.505  -9.845  24.639  0.00  0.00    +0.241 C 
ATOM     73  N   ILE A   3     -17.183 -11.133  24.679  0.00  0.00    -0.297 N 
ATOM     74  H   ILE A   3     -17.382 -11.670  25.547  0.00  0.00    +0.150 HD
ATOM     75  O   GLN A   2     -17.282  -9.118  23.672  0.00  0.00    -0.273 OA
BRANCH  72  76
ATOM     76  CA  GLN A   2     -18.167  -9.300  25.893  0.00  0.00    +0.149 C 
BRANCH  76  79
ATOM     77  C   GLY A   1     -18.408  -7.220  27.136  0.00  0.00    +0.240 C 
ATOM     78  O   GLY A   1     -18.953  -7.791  28.077  0.00  0.00    -0.274 OA
ATOM     79  N   GLN A   2     -18.024  -7.852  26.029  0.00  0.00    -0.297 N 
ATOM     80  H   GLN A   2     -17.614  -7.304  25.246  0.00  0.00    +0.150 HD
BRANCH  77  81
ATOM     81  CA  GLY A   1     -18.177  -5.720  27.177  0.00  0.00    +0.169 C 
BRANCH  81  82
ATOM     82  N   GLY A   1     -18.334  -5.124  28.493  0.00  0.00    -0.236 NA
ATOM     83  H   GLY A   1     -19.284  -5.046  28.908  0.00  0.00    +0.142 HD
ENDBRANCH  81  82
ENDBRANCH  77  81
ENDBRANCH  76  79
BRANCH  76  84
ATOM     84  CB  GLN A   2     -19.641  -9.724  25.896  0.00  0.00    +0.039 C 
BRANCH  84  85
ATOM     85  CG  GLN A   2     -20.427  -9.368  24.641  0.00  0.00    +0.087 C 
BRANCH  85  86
ATOM     86  CD  GLN A   2     -20.725  -7.892  24.549  0.00  0.00    +0.219 C 
ATOM     87  OE1 GLN A   2     -21.155  -7.281  25.523  0.00  0.00    -0.275 OA
ATOM     88  NE2 GLN A   2     -20.511  -7.312  23.374  0.00  0.00    -0.329 N 
ATOM     89 HE21 GLN A   2     -20.709  -6.298  23.251  0.00  0.00    +0.145 HD
ATOM     90 HE22 GLN A   2     -20.145  -7.871  22.577  0.00  0.00    +0.145 HD
ENDBRANCH  85  86
ENDBRANCH  84  85
ENDBRANCH  76  84
ENDBRANCH  72  76
ENDBRANCH  71  73
BRANCH  71  91
ATOM     91  CB  ILE A   3     -15.387 -12.710  24.018  0.00  0.00    +0.027 C 
ATOM     92  CG2 ILE A   3     -14.739 -13.365  22.808  0.00  0.00    +0.002 C 
BRANCH  91  93
ATOM     93  CG1 ILE A   3     -14.375 -11.878  24.818  0.00  0.00    +0.002 C 
ATOM     94  CD1 ILE A   3     -13.722 -10.755  24.026  0.00  0.00    +0.000 C 
ENDBRANCH  91  93
ENDBRANCH  71  91
ENDBRANCH  67  71
ENDBRANCH  66  69
BRANCH  66  95
ATOM     95  CB  VAL A   4     -19.906 -12.372  20.154  0.00  0.00    +0.027 C 
ATOM     96  CG2 VAL A   4     -20.546 -11.285  20.991  0.00  0.00    +0.002 C 
ATOM     97  CG1 VAL A   4     -20.975 -13.195  19.455  0.00  0.00    +0.002 C 
ENDBRANCH  66  95
ENDBRANCH  62  66
ENDBRANCH  61  63
BRANCH  61  98
ATOM     98  CB  VAL A   5     -18.671 -18.065  20.844  0.00  0.00    +0.027 C 
ATOM     99  CG2 VAL A   5     -17.555 -17.836  21.869  0.00  0.00    +0.002 C 
ATOM    100  CG1 VAL A   5     -18.433 -19.365  20.086  0.00  0.00    +0.002 C 
ENDBRANCH  61  98
ENDBRANCH  57  61
ENDBRANCH  55  59
ENDBRANCH  51  55
ENDBRANCH   1  52
BRANCH   1 101
ATOM    101  CB  ARG A   7     -23.377 -20.898  15.052  0.00  0.00    +0.033 C 
BRANCH 101 102
ATOM    102  CG  ARG A   7     -23.637 -22.140  14.222  0.00  0.00    +0.045 C 
BRANCH 102 103
ATOM    103  CD  ARG A   7     -24.940 -22.830  14.591  0.00  0.00    +0.174 C 
BRANCH 103 104
ATOM    104  NE  ARG A   7     -24.849 -23.418  15.919  0.00  0.00    -0.265 N 
ATOM    105  CZ  ARG A   7     -25.435 -22.915  16.997  0.00  0.00    +0.342 C 
ATOM    106  NH2 ARG A   7     -25.284 -23.513  18.172  0.00  0.00    -0.292 N 
ATOM    107 HH21 ARG A   7     -25.743 -23.120  19.018  0.00  0.00    +0.255 HD
ATOM    108 HH22 ARG A   7     -24.707 -24.375  18.246  0.00  0.00    +0.255 HD
ATOM    109  NH1 ARG A   7     -26.189 -21.827  16.891  0.00  0.00    -0.292 N 
ATOM    110 HH11 ARG A   7     -26.650 -21.430  17.734  0.00  0.00    +0.255 HD
ATOM    111 HH12 ARG A   7     -26.318 -21.372  15.965  0.00  0.00    +0.255 HD
ATOM    112  HE  ARG A   7     -24.289 -24.287  16.030  0.00  0.00    +0.259 HD
ENDBRANCH 103 104
ENDBRANCH 102 103
ENDBRANCH 101 102
ENDBRANCH   1 101
TORSDOF 44
REMARK  Name = ../refined-set-2016/3b2q/3b2q_pocket.pdb
REMARK  254 active torsions:
REMARK  status: ('A' for Active; 'I' for Inactive)
REMARK    1  A    between atoms: _2  and  _3
REMARK    2  A    between atoms: _8  and  _10
REMARK    3  A    between atoms: _10  and  _11
REMARK    4  A    between atoms: _10  and  _13
REMARK    5  A    between atoms: _13  and  _14
REMARK    6  A    between atoms: _17  and  _19
REMARK    7  A    between atoms: _19  and  _20
REMARK    8  A    between atoms: _19  and  _22
REMARK    9  A    between atoms: _22  and  _23
REMARK   10  A    between atoms: _29  and  _31
REMARK   11  A    between atoms: _31  and  _32
REMARK   12  A    between atoms: _31  and  _34
REMARK   13  A    between atoms: _34  and  _35
REMARK   14  A    between atoms: _37  and  _39
REMARK   15  A    between atoms: _39  and  _40
REMARK   16  A    between atoms: _43  and  _45
REMARK   17  A    between atoms: _45  and  _46
REMARK   18  A    between atoms: _45  and  _48
REMARK   19  A    between atoms: _48  and  _49
REMARK   20  A    between atoms: _51  and  _53
REMARK   21  A    between atoms: _53  and  _54
REMARK   22  A    between atoms: _56  and  _58
REMARK   23  A    between atoms: _58  and  _59
REMARK   24  A    between atoms: _58  and  _61
REMARK   25  A    between atoms: _61  and  _62
REMARK   26  A    between atoms: _65  and  _67
REMARK   27  A    between atoms: _67  and  _68
REMARK   28  A    between atoms: _67  and  _70
REMARK   29  A    between atoms: _70  and  _71
REMARK   30  A    between atoms: _74  and  _76
REMARK   31  A    between atoms: _76  and  _77
REMARK   32  A    between atoms: _76  and  _79
REMARK   33  A    between atoms: _79  and  _80
REMARK   34  A    between atoms: _82  and  _84
REMARK   35  A    between atoms: _84  and  _85
REMARK   36  A    between atoms: _84  and  _87
REMARK   37  A    between atoms: _87  and  _88
REMARK   38  A    between atoms: _88  and  _89
REMARK   39  A    between atoms: _92  and  _93
REMARK   40  A    between atoms: _99  and  _100
REMARK   41  A    between atoms: _105  and  _107
REMARK   42  A    between atoms: _107  and  _108
REMARK   43  A    between atoms: _107  and  _110
REMARK   44  A    between atoms: _110  and  _111
REMARK   45  A    between atoms: _114  and  _116
REMARK   46  A    between atoms: _116  and  _117
REMARK   47  A    between atoms: _116  and  _119
REMARK   48  A    between atoms: _119  and  _120
REMARK   49  A    between atoms: _123  and  _125
REMARK   50  A    between atoms: _125  and  _126
REMARK   51  A    between atoms: _125  and  _128
REMARK   52  A    between atoms: _128  and  _129
REMARK   53  A    between atoms: _131  and  _133
REMARK   54  A    between atoms: _133  and  _134
REMARK   55  A    between atoms: _136  and  _138
REMARK   56  A    between atoms: _138  and  _139
REMARK   57  A    between atoms: _138  and  _141
REMARK   58  A    between atoms: _141  and  _142
REMARK   59  A    between atoms: _147  and  _148
REMARK   60  A    between atoms: _150  and  _152
REMARK   61  A    between atoms: _152  and  _153
REMARK   62  A    between atoms: _152  and  _155
REMARK   63  A    between atoms: _155  and  _156
REMARK   64  A    between atoms: _159  and  _161
REMARK   65  A    between atoms: _161  and  _162
REMARK   66  A    between atoms: _161  and  _164
REMARK   67  A    between atoms: _164  and  _165
REMARK   68  A    between atoms: _168  and  _170
REMARK   69  A    between atoms: _170  and  _171
REMARK   70  A    between atoms: _173  and  _175
REMARK   71  A    between atoms: _175  and  _176
REMARK   72  A    between atoms: _175  and  _178
REMARK   73  A    between atoms: _178  and  _179
REMARK   74  A    between atoms: _179  and  _180
REMARK   75  A    between atoms: _185  and  _187
REMARK   76  A    between atoms: _187  and  _188
REMARK   77  A    between atoms: _187  and  _190
REMARK   78  A    between atoms: _190  and  _191
REMARK   79  A    between atoms: _194  and  _196
REMARK   80  A    between atoms: _196  and  _197
REMARK   81  A    between atoms: _196  and  _199
REMARK   82  A    between atoms: _202  and  _204
REMARK   83  A    between atoms: _204  and  _205
REMARK   84  A    between atoms: _204  and  _207
REMARK   85  A    between atoms: _210  and  _212
REMARK   86  A    between atoms: _212  and  _213
REMARK   87  A    between atoms: _216  and  _218
REMARK   88  A    between atoms: _218  and  _219
REMARK   89  A    between atoms: _218  and  _221
REMARK   90  A    between atoms: _221  and  _222
REMARK   91  A    between atoms: _222  and  _223
REMARK   92  A    between atoms: _223  and  _224
REMARK   93  A    between atoms: _233  and  _235
REMARK   94  A    between atoms: _235  and  _236
REMARK   95  A    between atoms: _235  and  _238
REMARK   96  A    between atoms: _238  and  _239
REMARK   97  A    between atoms: _239  and  _240
REMARK   98  A    between atoms: _243  and  _245
REMARK   99  A    between atoms: _245  and  _246
REMARK  100  A    between atoms: _245  and  _248
REMARK  101  A    between atoms: _248  and  _249
REMARK  102  A    between atoms: _252  and  _254
REMARK  103  A    between atoms: _254  and  _255
REMARK  104  A    between atoms: _254  and  _257
REMARK  105  A    between atoms: _257  and  _258
REMARK  106  A    between atoms: _263  and  _265
REMARK  107  A    between atoms: _265  and  _266
REMARK  108  A    between atoms: _265  and  _268
REMARK  109  A    between atoms: _268  and  _269
REMARK  110  A    between atoms: _269  and  _270
REMARK  111  A    between atoms: _270  and  _271
REMARK  112  A    between atoms: _281  and  _282
REMARK  113  A    between atoms: _287  and  _289
REMARK  114  A    between atoms: _289  and  _290
REMARK  115  A    between atoms: _289  and  _292
REMARK  116  A    between atoms: _292  and  _293
REMARK  117  A    between atoms: _298  and  _300
REMARK  118  A    between atoms: _300  and  _301
REMARK  119  A    between atoms: _300  and  _303
REMARK  120  A    between atoms: _303  and  _304
REMARK  121  A    between atoms: _308  and  _309
REMARK  122  A    between atoms: _314  and  _316
REMARK  123  A    between atoms: _316  and  _317
REMARK  124  A    between atoms: _316  and  _319
REMARK  125  A    between atoms: _319  and  _320
REMARK  126  A    between atoms: _322  and  _324
REMARK  127  A    between atoms: _324  and  _325
REMARK  128  A    between atoms: _324  and  _327
REMARK  129  A    between atoms: _327  and  _328
REMARK  130  A    between atoms: _331  and  _333
REMARK  131  A    between atoms: _333  and  _334
REMARK  132  A    between atoms: _333  and  _336
REMARK  133  A    between atoms: _336  and  _337
REMARK  134  A    between atoms: _337  and  _338
REMARK  135  A    between atoms: _338  and  _339
REMARK  136  A    between atoms: _348  and  _350
REMARK  137  A    between atoms: _350  and  _351
REMARK  138  A    between atoms: _350  and  _353
REMARK  139  A    between atoms: _353  and  _354
REMARK  140  A    between atoms: _360  and  _362
REMARK  141  A    between atoms: _362  and  _363
REMARK  142  A    between atoms: _362  and  _365
REMARK  143  A    between atoms: _365  and  _366
REMARK  144  A    between atoms: _368  and  _370
REMARK  145  A    between atoms: _370  and  _371
REMARK  146  A    between atoms: _374  and  _376
REMARK  147  A    between atoms: _376  and  _377
REMARK  148  A    between atoms: _376  and  _379
REMARK  149  A    between atoms: _379  and  _380
REMARK  150  A    between atoms: _385  and  _386
REMARK  151  A    between atoms: _388  and  _390
REMARK  152  A    between atoms: _390  and  _391
REMARK  153  A    between atoms: _390  and  _393
REMARK  154  A    between atoms: _393  and  _394
REMARK  155  A    between atoms: _394  and  _395
REMARK  156  A    between atoms: _397  and  _399
REMARK  157  A    between atoms: _399  and  _400
REMARK  158  A    between atoms: _399  and  _402
REMARK  159  A    between atoms: _402  and  _403
REMARK  160  A    between atoms: _408  and  _409
REMARK  161  A    between atoms: _411  and  _413
REMARK  162  A    between atoms: _413  and  _414
REMARK  163  A    between atoms: _413  and  _416
REMARK  164  A    between atoms: _416  and  _417
REMARK  165  A    between atoms: _420  and  _422
REMARK  166  A    between atoms: _422  and  _423
REMARK  167  A    between atoms: _422  and  _425
REMARK  168  A    between atoms: _425  and  _426
REMARK  169  A    between atoms: _426  and  _427
REMARK  170  A    between atoms: _429  and  _431
REMARK  171  A    between atoms: _431  and  _432
REMARK  172  A    between atoms: _431  and  _434
REMARK  173  A    between atoms: _434  and  _435
REMARK  174  A    between atoms: _439  and  _440
REMARK  175  A    between atoms: _445  and  _447
REMARK  176  A    between atoms: _447  and  _448
REMARK  177  A    between atoms: _447  and  _450
REMARK  178  A    between atoms: _450  and  _451
REMARK  179  A    between atoms: _455  and  _456
REMARK  180  A    between atoms: _461  and  _463
REMARK  181  A    between atoms: _463  and  _464
REMARK  182  A    between atoms: _463  and  _466
REMARK  183  A    between atoms: _466  and  _467
REMARK  184  A    between atoms: _470  and  _472
REMARK  185  A    between atoms: _472  and  _473
REMARK  186  A    between atoms: _472  and  _475
REMARK  187  A    between atoms: _475  and  _476
REMARK  188  A    between atoms: _479  and  _481
REMARK  189  A    between atoms: _481  and  _482
REMARK  190  A    between atoms: _481  and  _484
REMARK  191  A    between atoms: _484  and  _485
REMARK  192  A    between atoms: _487  and  _489
REMARK  193  A    between atoms: _489  and  _490
REMARK  194  A    between atoms: _492  and  _494
REMARK  195  A    between atoms: _494  and  _495
REMARK  196  A    between atoms: _494  and  _497
REMARK  197  A    between atoms: _497  and  _498
REMARK  198  A    between atoms: _503  and  _504
REMARK  199  A    between atoms: _506  and  _508
REMARK  200  A    between atoms: _508  and  _509
REMARK  201  A    between atoms: _508  and  _511
REMARK  202  A    between atoms: _511  and  _512
REMARK  203  A    between atoms: _515  and  _517
REMARK  204  A    between atoms: _517  and  _518
REMARK  205  A    between atoms: _517  and  _520
REMARK  206  A    between atoms: _520  and  _521
REMARK  207  A    between atoms: _524  and  _526
REMARK  208  A    between atoms: _526  and  _527
REMARK  209  A    between atoms: _529  and  _531
REMARK  210  A    between atoms: _531  and  _532
REMARK  211  A    between atoms: _531  and  _534
REMARK  212  A    between atoms: _534  and  _535
REMARK  213  A    between atoms: _535  and  _536
REMARK  214  A    between atoms: _541  and  _543
REMARK  215  A    between atoms: _543  and  _544
REMARK  216  A    between atoms: _543  and  _546
REMARK  217  A    between atoms: _546  and  _547
REMARK  218  A    between atoms: _550  and  _552
REMARK  219  A    between atoms: _552  and  _553
REMARK  220  A    between atoms: _552  and  _555
REMARK  221  A    between atoms: _558  and  _560
REMARK  222  A    between atoms: _560  and  _561
REMARK  223  A    between atoms: _560  and  _563
REMARK  224  A    between atoms: _566  and  _568
REMARK  225  A    between atoms: _568  and  _569
REMARK  226  A    between atoms: _572  and  _574
REMARK  227  A    between atoms: _574  and  _575
REMARK  228  A    between atoms: _574  and  _577
REMARK  229  A    between atoms: _577  and  _578
REMARK  230  A    between atoms: _578  and  _579
REMARK  231  A    between atoms: _579  and  _580
REMARK  232  A    between atoms: _589  and  _591
REMARK  233  A    between atoms: _591  and  _592
REMARK  234  A    between atoms: _591  and  _594
REMARK  235  A    between atoms: _594  and  _595
REMARK  236  A    between atoms: _600  and  _602
REMARK  237  A    between atoms: _602  and  _603
REMARK  238  A    between atoms: _602  and  _605
REMARK  239  A    between atoms: _605  and  _606
REMARK  240  A    between atoms: _610  and  _611
REMARK  241  A    between atoms: _616  and  _618
REMARK  242  A    between atoms: _618  and  _619
REMARK  243  A    between atoms: _618  and  _621
REMARK  244  A    between atoms: _621  and  _622
REMARK  245  A    between atoms: _624  and  _626
REMARK  246  A    between atoms: _626  and  _627
REMARK  247  A    between atoms: _626  and  _629
REMARK  248  A    between atoms: _629  and  _630
REMARK  249  A    between atoms: _633  and  _635
REMARK  250  A    between atoms: _635  and  _636
REMARK  251  A    between atoms: _635  and  _638
REMARK  252  A    between atoms: _638  and  _639
REMARK  253  A    between atoms: _639  and  _640
REMARK  254  A    between atoms: _640  and  _641
REMARK                            x       y       z     vdW  Elec       q    Type
REMARK                         _______ _______ _______ _____ _____    ______ ____
ROOT
ATOM      1  N   PRO A   1     -14.102 -19.650  16.901  0.00  0.00    -0.212 NA
ATOM      2  CD  PRO A   1     -14.700 -20.765  17.657  0.00  0.00    +0.089 C 
ATOM      3  CG  PRO A   1     -16.191 -20.616  17.346  0.00  0.00    +0.021 C 
ATOM      4  CB  PRO A   1     -16.218 -19.951  15.995  0.00  0.00    +0.027 C 
ATOM      5  CA  PRO A   1     -15.127 -18.911  16.164  0.00  0.00    +0.137 C 
ENDROOT
BRANCH   5   6
ATOM      6  C   PRO A   1     -15.630 -17.660  16.869  0.00  0.00    +0.224 C 
ATOM      7  O   PRO A   1     -16.782 -17.599  17.273  0.00  0.00    -0.287 OA
ENDBRANCH   5   6
TORSDOF 1
REMARK  Name = ../refined-set-2016/3b2q/3b2q_pocket.pdb
REMARK  254 active torsions:
REMARK  status: ('A' for Active; 'I' for Inactive)
REMARK    1  A    between atoms: _2  and  _3
REMARK    2  A    between atoms: _8  and  _10
REMARK    3  A    between atoms: _10  and  _11
REMARK    4  A    between atoms: _10  and  _13
REMARK    5  A    between atoms: _13  and  _14
REMARK    6  A    between atoms: _17  and  _19
REMARK    7  A    between atoms: _19  and  _20
REMARK    8  A    between atoms: _19  and  _22
REMARK    9  A    between atoms: _22  and  _23
REMARK   10  A    between atoms: _29  and  _31
REMARK   11  A    between atoms: _31  and  _32
REMARK   12  A    between atoms: _31  and  _34
REMARK   13  A    between atoms: _34  and  _35
REMARK   14  A    between atoms: _37  and  _39
REMARK   15  A    between atoms: _39  and  _40
REMARK   16  A    between atoms: _43  and  _45
REMARK   17  A    between atoms: _45  and  _46
REMARK   18  A    between atoms: _45  and  _48
REMARK   19  A    between atoms: _48  and  _49
REMARK   20  A    between atoms: _51  and  _53
REMARK   21  A    between atoms: _53  and  _54
REMARK   22  A    between atoms: _56  and  _58
REMARK   23  A    between atoms: _58  and  _59
REMARK   24  A    between atoms: _58  and  _61
REMARK   25  A    between atoms: _61  and  _62
REMARK   26  A    between atoms: _65  and  _67
REMARK   27  A    between atoms: _67  and  _68
REMARK   28  A    between atoms: _67  and  _70
REMARK   29  A    between atoms: _70  and  _71
REMARK   30  A    between atoms: _74  and  _76
REMARK   31  A    between atoms: _76  and  _77
REMARK   32  A    between atoms: _76  and  _79
REMARK   33  A    between atoms: _79  and  _80
REMARK   34  A    between atoms: _82  and  _84
REMARK   35  A    between atoms: _84  and  _85
REMARK   36  A    between atoms: _84  and  _87
REMARK   37  A    between atoms: _87  and  _88
REMARK   38  A    between atoms: _88  and  _89
REMARK   39  A    between atoms: _92  and  _93
REMARK   40  A    between atoms: _99  and  _100
REMARK   41  A    between atoms: _105  and  _107
REMARK   42  A    between atoms: _107  and  _108
REMARK   43  A    between atoms: _107  and  _110
REMARK   44  A    between atoms: _110  and  _111
REMARK   45  A    between atoms: _114  and  _116
REMARK   46  A    between atoms: _116  and  _117
REMARK   47  A    between atoms: _116  and  _119
REMARK   48  A    between atoms: _119  and  _120
REMARK   49  A    between atoms: _123  and  _125
REMARK   50  A    between atoms: _125  and  _126
REMARK   51  A    between atoms: _125  and  _128
REMARK   52  A    between atoms: _128  and  _129
REMARK   53  A    between atoms: _131  and  _133
REMARK   54  A    between atoms: _133  and  _134
REMARK   55  A    between atoms: _136  and  _138
REMARK   56  A    between atoms: _138  and  _139
REMARK   57  A    between atoms: _138  and  _141
REMARK   58  A    between atoms: _141  and  _142
REMARK   59  A    between atoms: _147  and  _148
REMARK   60  A    between atoms: _150  and  _152
REMARK   61  A    between atoms: _152  and  _153
REMARK   62  A    between atoms: _152  and  _155
REMARK   63  A    between atoms: _155  and  _156
REMARK   64  A    between atoms: _159  and  _161
REMARK   65  A    between atoms: _161  and  _162
REMARK   66  A    between atoms: _161  and  _164
REMARK   67  A    between atoms: _164  and  _165
REMARK   68  A    between atoms: _168  and  _170
REMARK   69  A    between atoms: _170  and  _171
REMARK   70  A    between atoms: _173  and  _175
REMARK   71  A    between atoms: _175  and  _176
REMARK   72  A    between atoms: _175  and  _178
REMARK   73  A    between atoms: _178  and  _179
REMARK   74  A    between atoms: _179  and  _180
REMARK   75  A    between atoms: _185  and  _187
REMARK   76  A    between atoms: _187  and  _188
REMARK   77  A    between atoms: _187  and  _190
REMARK   78  A    between atoms: _190  and  _191
REMARK   79  A    between atoms: _194  and  _196
REMARK   80  A    between atoms: _196  and  _197
REMARK   81  A    between atoms: _196  and  _199
REMARK   82  A    between atoms: _202  and  _204
REMARK   83  A    between atoms: _204  and  _205
REMARK   84  A    between atoms: _204  and  _207
REMARK   85  A    between atoms: _210  and  _212
REMARK   86  A    between atoms: _212  and  _213
REMARK   87  A    between atoms: _216  and  _218
REMARK   88  A    between atoms: _218  and  _219
REMARK   89  A    between atoms: _218  and  _221
REMARK   90  A    between atoms: _221  and  _222
REMARK   91  A    between atoms: _222  and  _223
REMARK   92  A    between atoms: _223  and  _224
REMARK   93  A    between atoms: _233  and  _235
REMARK   94  A    between atoms: _235  and  _236
REMARK   95  A    between atoms: _235  and  _238
REMARK   96  A    between atoms: _238  and  _239
REMARK   97  A    between atoms: _239  and  _240
REMARK   98  A    between atoms: _243  and  _245
REMARK   99  A    between atoms: _245  and  _246
REMARK  100  A    between atoms: _245  and  _248
REMARK  101  A    between atoms: _248  and  _249
REMARK  102  A    between atoms: _252  and  _254
REMARK  103  A    between atoms: _254  and  _255
REMARK  104  A    between atoms: _254  and  _257
REMARK  105  A    between atoms: _257  and  _258
REMARK  106  A    between atoms: _263  and  _265
REMARK  107  A    between atoms: _265  and  _266
REMARK  108  A    between atoms: _265  and  _268
REMARK  109  A    between atoms: _268  and  _269
REMARK  110  A    between atoms: _269  and  _270
REMARK  111  A    between atoms: _270  and  _271
REMARK  112  A    between atoms: _281  and  _282
REMARK  113  A    between atoms: _287  and  _289
REMARK  114  A    between atoms: _289  and  _290
REMARK  115  A    between atoms: _289  and  _292
REMARK  116  A    between atoms: _292  and  _293
REMARK  117  A    between atoms: _298  and  _300
REMARK  118  A    between atoms: _300  and  _301
REMARK  119  A    between atoms: _300  and  _303
REMARK  120  A    between atoms: _303  and  _304
REMARK  121  A    between atoms: _308  and  _309
REMARK  122  A    between atoms: _314  and  _316
REMARK  123  A    between atoms: _316  and  _317
REMARK  124  A    between atoms: _316  and  _319
REMARK  125  A    between atoms: _319  and  _320
REMARK  126  A    between atoms: _322  and  _324
REMARK  127  A    between atoms: _324  and  _325
REMARK  128  A    between atoms: _324  and  _327
REMARK  129  A    between atoms: _327  and  _328
REMARK  130  A    between atoms: _331  and  _333
REMARK  131  A    between atoms: _333  and  _334
REMARK  132  A    between atoms: _333  and  _336
REMARK  133  A    between atoms: _336  and  _337
REMARK  134  A    between atoms: _337  and  _338
REMARK  135  A    between atoms: _338  and  _339
REMARK  136  A    between atoms: _348  and  _350
REMARK  137  A    between atoms: _350  and  _351
REMARK  138  A    between atoms: _350  and  _353
REMARK  139  A    between atoms: _353  and  _354
REMARK  140  A    between atoms: _360  and  _362
REMARK  141  A    between atoms: _362  and  _363
REMARK  142  A    between atoms: _362  and  _365
REMARK  143  A    between atoms: _365  and  _366
REMARK  144  A    between atoms: _368  and  _370
REMARK  145  A    between atoms: _370  and  _371
REMARK  146  A    between atoms: _374  and  _376
REMARK  147  A    between atoms: _376  and  _377
REMARK  148  A    between atoms: _376  and  _379
REMARK  149  A    between atoms: _379  and  _380
REMARK  150  A    between atoms: _385  and  _386
REMARK  151  A    between atoms: _388  and  _390
REMARK  152  A    between atoms: _390  and  _391
REMARK  153  A    between atoms: _390  and  _393
REMARK  154  A    between atoms: _393  and  _394
REMARK  155  A    between atoms: _394  and  _395
REMARK  156  A    between atoms: _397  and  _399
REMARK  157  A    between atoms: _399  and  _400
REMARK  158  A    between atoms: _399  and  _402
REMARK  159  A    between atoms: _402  and  _403
REMARK  160  A    between atoms: _408  and  _409
REMARK  161  A    between atoms: _411  and  _413
REMARK  162  A    between atoms: _413  and  _414
REMARK  163  A    between atoms: _413  and  _416
REMARK  164  A    between atoms: _416  and  _417
REMARK  165  A    between atoms: _420  and  _422
REMARK  166  A    between atoms: _422  and  _423
REMARK  167  A    between atoms: _422  and  _425
REMARK  168  A    between atoms: _425  and  _426
REMARK  169  A    between atoms: _426  and  _427
REMARK  170  A    between atoms: _429  and  _431
REMARK  171  A    between atoms: _431  and  _432
REMARK  172  A    between atoms: _431  and  _434
REMARK  173  A    between atoms: _434  and  _435
REMARK  174  A    between atoms: _439  and  _440
REMARK  175  A    between atoms: _445  and  _447
REMARK  176  A    between atoms: _447  and  _448
REMARK  177  A    between atoms: _447  and  _450
REMARK  178  A    between atoms: _450  and  _451
REMARK  179  A    between atoms: _455  and  _456
REMARK  180  A    between atoms: _461  and  _463
REMARK  181  A    between atoms: _463  and  _464
REMARK  182  A    between atoms: _463  and  _466
REMARK  183  A    between atoms: _466  and  _467
REMARK  184  A    between atoms: _470  and  _472
REMARK  185  A    between atoms: _472  and  _473
REMARK  186  A    between atoms: _472  and  _475
REMARK  187  A    between atoms: _475  and  _476
REMARK  188  A    between atoms: _479  and  _481
REMARK  189  A    between atoms: _481  and  _482
REMARK  190  A    between atoms: _481  and  _484
REMARK  191  A    between atoms: _484  and  _485
REMARK  192  A    between atoms: _487  and  _489
REMARK  193  A    between atoms: _489  and  _490
REMARK  194  A    between atoms: _492  and  _494
REMARK  195  A    between atoms: _494  and  _495
REMARK  196  A    between atoms: _494  and  _497
REMARK  197  A    between atoms: _497  and  _498
REMARK  198  A    between atoms: _503  and  _504
REMARK  199  A    between atoms: _506  and  _508
REMARK  200  A    between atoms: _508  and  _509
REMARK  201  A    between atoms: _508  and  _511
REMARK  202  A    between atoms: _511  and  _512
REMARK  203  A    between atoms: _515  and  _517
REMARK  204  A    between atoms: _517  and  _518
REMARK  205  A    between atoms: _517  and  _520
REMARK  206  A    between atoms: _520  and  _521
REMARK  207  A    between atoms: _524  and  _526
REMARK  208  A    between atoms: _526  and  _527
REMARK  209  A    between atoms: _529  and  _531
REMARK  210  A    between atoms: _531  and  _532
REMARK  211  A    between atoms: _531  and  _534
REMARK  212  A    between atoms: _534  and  _535
REMARK  213  A    between atoms: _535  and  _536
REMARK  214  A    between atoms: _541  and  _543
REMARK  215  A    between atoms: _543  and  _544
REMARK  216  A    between atoms: _543  and  _546
REMARK  217  A    between atoms: _546  and  _547
REMARK  218  A    between atoms: _550  and  _552
REMARK  219  A    between atoms: _552  and  _553
REMARK  220  A    between atoms: _552  and  _555
REMARK  221  A    between atoms: _558  and  _560
REMARK  222  A    between atoms: _560  and  _561
REMARK  223  A    between atoms: _560  and  _563
REMARK  224  A    between atoms: _566  and  _568
REMARK  225  A    between atoms: _568  and  _569
REMARK  226  A    between atoms: _572  and  _574
REMARK  227  A    between atoms: _574  and  _575
REMARK  228  A    between atoms: _574  and  _577
REMARK  229  A    between atoms: _577  and  _578
REMARK  230  A    between atoms: _578  and  _579
REMARK  231  A    between atoms: _579  and  _580
REMARK  232  A    between atoms: _589  and  _591
REMARK  233  A    between atoms: _591  and  _592
REMARK  234  A    between atoms: _591  and  _594
REMARK  235  A    between atoms: _594  and  _595
REMARK  236  A    between atoms: _600  and  _602
REMARK  237  A    between atoms: _602  and  _603
REMARK  238  A    between atoms: _602  and  _605
REMARK  239  A    between atoms: _605  and  _606
REMARK  240  A    between atoms: _610  and  _611
REMARK  241  A    between atoms: _616  and  _618
REMARK  242  A    between atoms: _618  and  _619
REMARK  243  A    between atoms: _618  and  _621
REMARK  244  A    between atoms: _621  and  _622
REMARK  245  A    between atoms: _624  and  _626
REMARK  246  A    between atoms: _626  and  _627
REMARK  247  A    between atoms: _626  and  _629
REMARK  248  A    between atoms: _629  and  _630
REMARK  249  A    between atoms: _633  and  _635
REMARK  250  A    between atoms: _635  and  _636
REMARK  251  A    between atoms: _635  and  _638
REMARK  252  A    between atoms: _638  and  _639
REMARK  253  A    between atoms: _639  and  _640
REMARK  254  A    between atoms: _640  and  _641
REMARK                            x       y       z     vdW  Elec       q    Type
REMARK                         _______ _______ _______ _____ _____    ______ ____
ROOT
ATOM      1  CB  ASN A   1     -18.376 -12.641  15.428  0.00  0.00    +0.110 C 
ENDROOT
BRANCH   1   2
ATOM      2  CG  ASN A   1     -18.744 -11.576  14.416  0.00  0.00    +0.221 C 
ATOM      3  OD1 ASN A   1     -17.959 -10.670  14.136  0.00  0.00    -0.275 OA
ATOM      4  ND2 ASN A   1     -19.948 -11.671  13.866  0.00  0.00    -0.329 N 
ATOM      5 HD21 ASN A   1     -20.580 -12.453  14.131  0.00  0.00    +0.145 HD
ATOM      6 HD22 ASN A   1     -20.259 -10.964  13.170  0.00  0.00    +0.145 HD
ENDBRANCH   1   2
BRANCH   1   7
ATOM      7  CA  ASN A   1     -16.884 -12.625  15.778  0.00  0.00    +0.142 C 
BRANCH   7   8
ATOM      8  N   ASN A   1     -16.554 -13.716  16.692  0.00  0.00    -0.239 NA
ATOM      9  H   ASN A   1     -17.256 -14.027  17.394  0.00  0.00    +0.142 HD
ENDBRANCH   7   8
BRANCH   7  10
ATOM     10  C   ASN A   1     -16.534 -11.341  16.522  0.00  0.00    +0.225 C 
ATOM     11  O   ASN A   1     -17.223 -10.960  17.475  0.00  0.00    -0.287 OA
ENDBRANCH   7  10
ENDBRANCH   1   7
TORSDOF 4
REMARK  Name = ../refined-set-2016/3b2q/3b2q_pocket.pdb
REMARK  254 active torsions:
REMARK  status: ('A' for Active; 'I' for Inactive)
REMARK    1  A    between atoms: _2  and  _3
REMARK    2  A    between atoms: _8  and  _10
REMARK    3  A    between atoms: _10  and  _11
REMARK    4  A    between atoms: _10  and  _13
REMARK    5  A    between atoms: _13  and  _14
REMARK    6  A    between atoms: _17  and  _19
REMARK    7  A    between atoms: _19  and  _20
REMARK    8  A    between atoms: _19  and  _22
REMARK    9  A    between atoms: _22  and  _23
REMARK   10  A    between atoms: _29  and  _31
REMARK   11  A    between atoms: _31  and  _32
REMARK   12  A    between atoms: _31  and  _34
REMARK   13  A    between atoms: _34  and  _35
REMARK   14  A    between atoms: _37  and  _39
REMARK   15  A    between atoms: _39  and  _40
REMARK   16  A    between atoms: _43  and  _45
REMARK   17  A    between atoms: _45  and  _46
REMARK   18  A    between atoms: _45  and  _48
REMARK   19  A    between atoms: _48  and  _49
REMARK   20  A    between atoms: _51  and  _53
REMARK   21  A    between atoms: _53  and  _54
REMARK   22  A    between atoms: _56  and  _58
REMARK   23  A    between atoms: _58  and  _59
REMARK   24  A    between atoms: _58  and  _61
REMARK   25  A    between atoms: _61  and  _62
REMARK   26  A    between atoms: _65  and  _67
REMARK   27  A    between atoms: _67  and  _68
REMARK   28  A    between atoms: _67  and  _70
REMARK   29  A    between atoms: _70  and  _71
REMARK   30  A    between atoms: _74  and  _76
REMARK   31  A    between atoms: _76  and  _77
REMARK   32  A    between atoms: _76  and  _79
REMARK   33  A    between atoms: _79  and  _80
REMARK   34  A    between atoms: _82  and  _84
REMARK   35  A    between atoms: _84  and  _85
REMARK   36  A    between atoms: _84  and  _87
REMARK   37  A    between atoms: _87  and  _88
REMARK   38  A    between atoms: _88  and  _89
REMARK   39  A    between atoms: _92  and  _93
REMARK   40  A    between atoms: _99  and  _100
REMARK   41  A    between atoms: _105  and  _107
REMARK   42  A    between atoms: _107  and  _108
REMARK   43  A    between atoms: _107  and  _110
REMARK   44  A    between atoms: _110  and  _111
REMARK   45  A    between atoms: _114  and  _116
REMARK   46  A    between atoms: _116  and  _117
REMARK   47  A    between atoms: _116  and  _119
REMARK   48  A    between atoms: _119  and  _120
REMARK   49  A    between atoms: _123  and  _125
REMARK   50  A    between atoms: _125  and  _126
REMARK   51  A    between atoms: _125  and  _128
REMARK   52  A    between atoms: _128  and  _129
REMARK   53  A    between atoms: _131  and  _133
REMARK   54  A    between atoms: _133  and  _134
REMARK   55  A    between atoms: _136  and  _138
REMARK   56  A    between atoms: _138  and  _139
REMARK   57  A    between atoms: _138  and  _141
REMARK   58  A    between atoms: _141  and  _142
REMARK   59  A    between atoms: _147  and  _148
REMARK   60  A    between atoms: _150  and  _152
REMARK   61  A    between atoms: _152  and  _153
REMARK   62  A    between atoms: _152  and  _155
REMARK   63  A    between atoms: _155  and  _156
REMARK   64  A    between atoms: _159  and  _161
REMARK   65  A    between atoms: _161  and  _162
REMARK   66  A    between atoms: _161  and  _164
REMARK   67  A    between atoms: _164  and  _165
REMARK   68  A    between atoms: _168  and  _170
REMARK   69  A    between atoms: _170  and  _171
REMARK   70  A    between atoms: _173  and  _175
REMARK   71  A    between atoms: _175  and  _176
REMARK   72  A    between atoms: _175  and  _178
REMARK   73  A    between atoms: _178  and  _179
REMARK   74  A    between atoms: _179  and  _180
REMARK   75  A    between atoms: _185  and  _187
REMARK   76  A    between atoms: _187  and  _188
REMARK   77  A    between atoms: _187  and  _190
REMARK   78  A    between atoms: _190  and  _191
REMARK   79  A    between atoms: _194  and  _196
REMARK   80  A    between atoms: _196  and  _197
REMARK   81  A    between atoms: _196  and  _199
REMARK   82  A    between atoms: _202  and  _204
REMARK   83  A    between atoms: _204  and  _205
REMARK   84  A    between atoms: _204  and  _207
REMARK   85  A    between atoms: _210  and  _212
REMARK   86  A    between atoms: _212  and  _213
REMARK   87  A    between atoms: _216  and  _218
REMARK   88  A    between atoms: _218  and  _219
REMARK   89  A    between atoms: _218  and  _221
REMARK   90  A    between atoms: _221  and  _222
REMARK   91  A    between atoms: _222  and  _223
REMARK   92  A    between atoms: _223  and  _224
REMARK   93  A    between atoms: _233  and  _235
REMARK   94  A    between atoms: _235  and  _236
REMARK   95  A    between atoms: _235  and  _238
REMARK   96  A    between atoms: _238  and  _239
REMARK   97  A    between atoms: _239  and  _240
REMARK   98  A    between atoms: _243  and  _245
REMARK   99  A    between atoms: _245  and  _246
REMARK  100  A    between atoms: _245  and  _248
REMARK  101  A    between atoms: _248  and  _249
REMARK  102  A    between atoms: _252  and  _254
REMARK  103  A    between atoms: _254  and  _255
REMARK  104  A    between atoms: _254  and  _257
REMARK  105  A    between atoms: _257  and  _258
REMARK  106  A    between atoms: _263  and  _265
REMARK  107  A    between atoms: _265  and  _266
REMARK  108  A    between atoms: _265  and  _268
REMARK  109  A    between atoms: _268  and  _269
REMARK  110  A    between atoms: _269  and  _270
REMARK  111  A    between atoms: _270  and  _271
REMARK  112  A    between atoms: _281  and  _282
REMARK  113  A    between atoms: _287  and  _289
REMARK  114  A    between atoms: _289  and  _290
REMARK  115  A    between atoms: _289  and  _292
REMARK  116  A    between atoms: _292  and  _293
REMARK  117  A    between atoms: _298  and  _300
REMARK  118  A    between atoms: _300  and  _301
REMARK  119  A    between atoms: _300  and  _303
REMARK  120  A    between atoms: _303  and  _304
REMARK  121  A    between atoms: _308  and  _309
REMARK  122  A    between atoms: _314  and  _316
REMARK  123  A    between atoms: _316  and  _317
REMARK  124  A    between atoms: _316  and  _319
REMARK  125  A    between atoms: _319  and  _320
REMARK  126  A    between atoms: _322  and  _324
REMARK  127  A    between atoms: _324  and  _325
REMARK  128  A    between atoms: _324  and  _327
REMARK  129  A    between atoms: _327  and  _328
REMARK  130  A    between atoms: _331  and  _333
REMARK  131  A    between atoms: _333  and  _334
REMARK  132  A    between atoms: _333  and  _336
REMARK  133  A    between atoms: _336  and  _337
REMARK  134  A    between atoms: _337  and  _338
REMARK  135  A    between atoms: _338  and  _339
REMARK  136  A    between atoms: _348  and  _350
REMARK  137  A    between atoms: _350  and  _351
REMARK  138  A    between atoms: _350  and  _353
REMARK  139  A    between atoms: _353  and  _354
REMARK  140  A    between atoms: _360  and  _362
REMARK  141  A    between atoms: _362  and  _363
REMARK  142  A    between atoms: _362  and  _365
REMARK  143  A    between atoms: _365  and  _366
REMARK  144  A    between atoms: _368  and  _370
REMARK  145  A    between atoms: _370  and  _371
REMARK  146  A    between atoms: _374  and  _376
REMARK  147  A    between atoms: _376  and  _377
REMARK  148  A    between atoms: _376  and  _379
REMARK  149  A    between atoms: _379  and  _380
REMARK  150  A    between atoms: _385  and  _386
REMARK  151  A    between atoms: _388  and  _390
REMARK  152  A    between atoms: _390  and  _391
REMARK  153  A    between atoms: _390  and  _393
REMARK  154  A    between atoms: _393  and  _394
REMARK  155  A    between atoms: _394  and  _395
REMARK  156  A    between atoms: _397  and  _399
REMARK  157  A    between atoms: _399  and  _400
REMARK  158  A    between atoms: _399  and  _402
REMARK  159  A    between atoms: _402  and  _403
REMARK  160  A    between atoms: _408  and  _409
REMARK  161  A    between atoms: _411  and  _413
REMARK  162  A    between atoms: _413  and  _414
REMARK  163  A    between atoms: _413  and  _416
REMARK  164  A    between atoms: _416  and  _417
REMARK  165  A    between atoms: _420  and  _422
REMARK  166  A    between atoms: _422  and  _423
REMARK  167  A    between atoms: _422  and  _425
REMARK  168  A    between atoms: _425  and  _426
REMARK  169  A    between atoms: _426  and  _427
REMARK  170  A    between atoms: _429  and  _431
REMARK  171  A    between atoms: _431  and  _432
REMARK  172  A    between atoms: _431  and  _434
REMARK  173  A    between atoms: _434  and  _435
REMARK  174  A    between atoms: _439  and  _440
REMARK  175  A    between atoms: _445  and  _447
REMARK  176  A    between atoms: _447  and  _448
REMARK  177  A    between atoms: _447  and  _450
REMARK  178  A    between atoms: _450  and  _451
REMARK  179  A    between atoms: _455  and  _456
REMARK  180  A    between atoms: _461  and  _463
REMARK  181  A    between atoms: _463  and  _464
REMARK  182  A    between atoms: _463  and  _466
REMARK  183  A    between atoms: _466  and  _467
REMARK  184  A    between atoms: _470  and  _472
REMARK  185  A    between atoms: _472  and  _473
REMARK  186  A    between atoms: _472  and  _475
REMARK  187  A    between atoms: _475  and  _476
REMARK  188  A    between atoms: _479  and  _481
REMARK  189  A    between atoms: _481  and  _482
REMARK  190  A    between atoms: _481  and  _484
REMARK  191  A    between atoms: _484  and  _485
REMARK  192  A    between atoms: _487  and  _489
REMARK  193  A    between atoms: _489  and  _490
REMARK  194  A    between atoms: _492  and  _494
REMARK  195  A    between atoms: _494  and  _495
REMARK  196  A    between atoms: _494  and  _497
REMARK  197  A    between atoms: _497  and  _498
REMARK  198  A    between atoms: _503  and  _504
REMARK  199  A    between atoms: _506  and  _508
REMARK  200  A    between atoms: _508  and  _509
REMARK  201  A    between atoms: _508  and  _511
REMARK  202  A    between atoms: _511  and  _512
REMARK  203  A    between atoms: _515  and  _517
REMARK  204  A    between atoms: _517  and  _518
REMARK  205  A    between atoms: _517  and  _520
REMARK  206  A    between atoms: _520  and  _521
REMARK  207  A    between atoms: _524  and  _526
REMARK  208  A    between atoms: _526  and  _527
REMARK  209  A    between atoms: _529  and  _531
REMARK  210  A    between atoms: _531  and  _532
REMARK  211  A    between atoms: _531  and  _534
REMARK  212  A    between atoms: _534  and  _535
REMARK  213  A    between atoms: _535  and  _536
REMARK  214  A    between atoms: _541  and  _543
REMARK  215  A    between atoms: _543  and  _544
REMARK  216  A    between atoms: _543  and  _546
REMARK  217  A    between atoms: _546  and  _547
REMARK  218  A    between atoms: _550  and  _552
REMARK  219  A    between atoms: _552  and  _553
REMARK  220  A    between atoms: _552  and  _555
REMARK  221  A    between atoms: _558  and  _560
REMARK  222  A    between atoms: _560  and  _561
REMARK  223  A    between atoms: _560  and  _563
REMARK  224  A    between atoms: _566  and  _568
REMARK  225  A    between atoms: _568  and  _569
REMARK  226  A    between atoms: _572  and  _574
REMARK  227  A    between atoms: _574  and  _575
REMARK  228  A    between atoms: _574  and  _577
REMARK  229  A    between atoms: _577  and  _578
REMARK  230  A    between atoms: _578  and  _579
REMARK  231  A    between atoms: _579  and  _580
REMARK  232  A    between atoms: _589  and  _591
REMARK  233  A    between atoms: _591  and  _592
REMARK  234  A    between atoms: _591  and  _594
REMARK  235  A    between atoms: _594  and  _595
REMARK  236  A    between atoms: _600  and  _602
REMARK  237  A    between atoms: _602  and  _603
REMARK  238  A    between atoms: _602  and  _605
REMARK  239  A    between atoms: _605  and  _606
REMARK  240  A    between atoms: _610  and  _611
REMARK  241  A    between atoms: _616  and  _618
REMARK  242  A    between atoms: _618  and  _619
REMARK  243  A    between atoms: _618  and  _621
REMARK  244  A    between atoms: _621  and  _622
REMARK  245  A    between atoms: _624  and  _626
REMARK  246  A    between atoms: _626  and  _627
REMARK  247  A    between atoms: _626  and  _629
REMARK  248  A    between atoms: _629  and  _630
REMARK  249  A    between atoms: _633  and  _635
REMARK  250  A    between atoms: _635  and  _636
REMARK  251  A    between atoms: _635  and  _638
REMARK  252  A    between atoms: _638  and  _639
REMARK  253  A    between atoms: _639  and  _640
REMARK  254  A    between atoms: _640  and  _641
REMARK                            x       y       z     vdW  Elec       q    Type
REMARK                         _______ _______ _______ _____ _____    ______ ____
ROOT
ATOM      1  C   PRO A   2     -19.594  -7.714  19.404  0.00  0.00    +0.241 C 
ATOM      2  O   PRO A   2     -20.158  -7.425  20.457  0.00  0.00    -0.273 OA
ATOM      3  N   SER A   3     -18.320  -8.097  19.355  0.00  0.00    -0.295 N 
ATOM      4  H   SER A   3     -17.894  -8.329  18.435  0.00  0.00    +0.150 HD
ENDROOT
BRANCH   1   7
ATOM      5  C   LEU A   1     -18.705  -6.883  16.491  0.00  0.00    +0.241 C 
ATOM      6  N   PRO A   2     -19.419  -7.918  16.953  0.00  0.00    -0.272 N 
ATOM      7  CA  PRO A   2     -20.334  -7.637  18.061  0.00  0.00    +0.152 C 
ATOM      8  CB  PRO A   2     -21.408  -8.713  17.900  0.00  0.00    +0.031 C 
ATOM      9  CG  PRO A   2     -20.654  -9.853  17.305  0.00  0.00    +0.024 C 
ATOM     10  CD  PRO A   2     -19.778  -9.180  16.282  0.00  0.00    +0.094 C 
ATOM     11  O   LEU A   1     -18.846  -5.750  16.947  0.00  0.00    -0.273 OA
BRANCH   5  12
ATOM     12  CA  LEU A   1     -17.728  -7.142  15.347  0.00  0.00    +0.145 C 
BRANCH  12  13
ATOM     13  N   LEU A   1     -16.820  -8.269  15.575  0.00  0.00    -0.238 NA
ATOM     14  H   LEU A   1     -16.823  -9.075  14.918  0.00  0.00    +0.142 HD
ENDBRANCH  12  13
BRANCH  12  15
ATOM     15  CB  LEU A   1     -18.468  -7.316  14.014  0.00  0.00    +0.026 C 
BRANCH  15  16
ATOM     16  CG  LEU A   1     -17.512  -7.311  12.809  0.00  0.00    +0.002 C 
ATOM     17  CD2 LEU A   1     -16.645  -6.050  12.863  0.00  0.00    +0.000 C 
ATOM     18  CD1 LEU A   1     -18.294  -7.362  11.497  0.00  0.00    +0.000 C 
ENDBRANCH  15  16
ENDBRANCH  12  15
ENDBRANCH   5  12
ENDBRANCH   1   7
BRANCH   3  19
ATOM     19  CA  SER A   3     -17.507  -8.198  20.565  0.00  0.00    +0.178 C 
BRANCH  19  20
ATOM     20  C   SER A   3     -16.989  -6.823  20.988  0.00  0.00    +0.243 C 
ATOM     21  N   LEU A   4     -16.755  -6.665  22.282  0.00  0.00    -0.298 N 
ATOM     22  H   LEU A   4     -16.900  -7.463  22.933  0.00  0.00    +0.150 HD
ATOM     23  O   SER A   3     -16.786  -5.931  20.162  0.00  0.00    -0.273 OA
BRANCH  21  24
ATOM     24  CA  LEU A   4     -16.298  -5.389  22.799  0.00  0.00    +0.137 C 
BRANCH  24  25
ATOM     25  C   LEU A   4     -15.637  -5.522  24.148  0.00  0.00    +0.227 C 
ATOM     26  O   LEU A   4     -16.022  -6.362  24.953  0.00  0.00    -0.286 OA
ENDBRANCH  24  25
BRANCH  24  27
ATOM     27  CB  LEU A   4     -17.498  -4.440  22.944  0.00  0.00    +0.028 C 
BRANCH  27  28
ATOM     28  CG  LEU A   4     -17.274  -3.138  23.716  0.00  0.00    +0.002 C 
ATOM     29  CD2 LEU A   4     -18.612  -2.559  24.168  0.00  0.00    +0.000 C 
ATOM     30  CD1 LEU A   4     -16.543  -2.144  22.823  0.00  0.00    +0.000 C 
ENDBRANCH  27  28
ENDBRANCH  24  27
ENDBRANCH  21  24
ENDBRANCH  19  20
BRANCH  19  31
ATOM     31  CB  SER A   3     -16.326  -9.155  20.350  0.00  0.00    +0.166 C 
BRANCH  31  32
ATOM     32  OG  SER A   3     -16.782 -10.491  20.208  0.00  0.00    -0.380 OA
ATOM     33  H   SER A   3     -17.389 -10.550  19.428  0.00  0.00    +0.211 HD
ENDBRANCH  31  32
ENDBRANCH  19  31
ENDBRANCH   3  19
TORSDOF 13
REMARK  Name = ../refined-set-2016/3b2q/3b2q_pocket.pdb
REMARK  254 active torsions:
REMARK  status: ('A' for Active; 'I' for Inactive)
REMARK    1  A    between atoms: _2  and  _3
REMARK    2  A    between atoms: _8  and  _10
REMARK    3  A    between atoms: _10  and  _11
REMARK    4  A    between atoms: _10  and  _13
REMARK    5  A    between atoms: _13  and  _14
REMARK    6  A    between atoms: _17  and  _19
REMARK    7  A    between atoms: _19  and  _20
REMARK    8  A    between atoms: _19  and  _22
REMARK    9  A    between atoms: _22  and  _23
REMARK   10  A    between atoms: _29  and  _31
REMARK   11  A    between atoms: _31  and  _32
REMARK   12  A    between atoms: _31  and  _34
REMARK   13  A    between atoms: _34  and  _35
REMARK   14  A    between atoms: _37  and  _39
REMARK   15  A    between atoms: _39  and  _40
REMARK   16  A    between atoms: _43  and  _45
REMARK   17  A    between atoms: _45  and  _46
REMARK   18  A    between atoms: _45  and  _48
REMARK   19  A    between atoms: _48  and  _49
REMARK   20  A    between atoms: _51  and  _53
REMARK   21  A    between atoms: _53  and  _54
REMARK   22  A    between atoms: _56  and  _58
REMARK   23  A    between atoms: _58  and  _59
REMARK   24  A    between atoms: _58  and  _61
REMARK   25  A    between atoms: _61  and  _62
REMARK   26  A    between atoms: _65  and  _67
REMARK   27  A    between atoms: _67  and  _68
REMARK   28  A    between atoms: _67  and  _70
REMARK   29  A    between atoms: _70  and  _71
REMARK   30  A    between atoms: _74  and  _76
REMARK   31  A    between atoms: _76  and  _77
REMARK   32  A    between atoms: _76  and  _79
REMARK   33  A    between atoms: _79  and  _80
REMARK   34  A    between atoms: _82  and  _84
REMARK   35  A    between atoms: _84  and  _85
REMARK   36  A    between atoms: _84  and  _87
REMARK   37  A    between atoms: _87  and  _88
REMARK   38  A    between atoms: _88  and  _89
REMARK   39  A    between atoms: _92  and  _93
REMARK   40  A    between atoms: _99  and  _100
REMARK   41  A    between atoms: _105  and  _107
REMARK   42  A    between atoms: _107  and  _108
REMARK   43  A    between atoms: _107  and  _110
REMARK   44  A    between atoms: _110  and  _111
REMARK   45  A    between atoms: _114  and  _116
REMARK   46  A    between atoms: _116  and  _117
REMARK   47  A    between atoms: _116  and  _119
REMARK   48  A    between atoms: _119  and  _120
REMARK   49  A    between atoms: _123  and  _125
REMARK   50  A    between atoms: _125  and  _126
REMARK   51  A    between atoms: _125  and  _128
REMARK   52  A    between atoms: _128  and  _129
REMARK   53  A    between atoms: _131  and  _133
REMARK   54  A    between atoms: _133  and  _134
REMARK   55  A    between atoms: _136  and  _138
REMARK   56  A    between atoms: _138  and  _139
REMARK   57  A    between atoms: _138  and  _141
REMARK   58  A    between atoms: _141  and  _142
REMARK   59  A    between atoms: _147  and  _148
REMARK   60  A    between atoms: _150  and  _152
REMARK   61  A    between atoms: _152  and  _153
REMARK   62  A    between atoms: _152  and  _155
REMARK   63  A    between atoms: _155  and  _156
REMARK   64  A    between atoms: _159  and  _161
REMARK   65  A    between atoms: _161  and  _162
REMARK   66  A    between atoms: _161  and  _164
REMARK   67  A    between atoms: _164  and  _165
REMARK   68  A    between atoms: _168  and  _170
REMARK   69  A    between atoms: _170  and  _171
REMARK   70  A    between atoms: _173  and  _175
REMARK   71  A    between atoms: _175  and  _176
REMARK   72  A    between atoms: _175  and  _178
REMARK   73  A    between atoms: _178  and  _179
REMARK   74  A    between atoms: _179  and  _180
REMARK   75  A    between atoms: _185  and  _187
REMARK   76  A    between atoms: _187  and  _188
REMARK   77  A    between atoms: _187  and  _190
REMARK   78  A    between atoms: _190  and  _191
REMARK   79  A    between atoms: _194  and  _196
REMARK   80  A    between atoms: _196  and  _197
REMARK   81  A    between atoms: _196  and  _199
REMARK   82  A    between atoms: _202  and  _204
REMARK   83  A    between atoms: _204  and  _205
REMARK   84  A    between atoms: _204  and  _207
REMARK   85  A    between atoms: _210  and  _212
REMARK   86  A    between atoms: _212  and  _213
REMARK   87  A    between atoms: _216  and  _218
REMARK   88  A    between atoms: _218  and  _219
REMARK   89  A    between atoms: _218  and  _221
REMARK   90  A    between atoms: _221  and  _222
REMARK   91  A    between atoms: _222  and  _223
REMARK   92  A    between atoms: _223  and  _224
REMARK   93  A    between atoms: _233  and  _235
REMARK   94  A    between atoms: _235  and  _236
REMARK   95  A    between atoms: _235  and  _238
REMARK   96  A    between atoms: _238  and  _239
REMARK   97  A    between atoms: _239  and  _240
REMARK   98  A    between atoms: _243  and  _245
REMARK   99  A    between atoms: _245  and  _246
REMARK  100  A    between atoms: _245  and  _248
REMARK  101  A    between atoms: _248  and  _249
REMARK  102  A    between atoms: _252  and  _254
REMARK  103  A    between atoms: _254  and  _255
REMARK  104  A    between atoms: _254  and  _257
REMARK  105  A    between atoms: _257  and  _258
REMARK  106  A    between atoms: _263  and  _265
REMARK  107  A    between atoms: _265  and  _266
REMARK  108  A    between atoms: _265  and  _268
REMARK  109  A    between atoms: _268  and  _269
REMARK  110  A    between atoms: _269  and  _270
REMARK  111  A    between atoms: _270  and  _271
REMARK  112  A    between atoms: _281  and  _282
REMARK  113  A    between atoms: _287  and  _289
REMARK  114  A    between atoms: _289  and  _290
REMARK  115  A    between atoms: _289  and  _292
REMARK  116  A    between atoms: _292  and  _293
REMARK  117  A    between atoms: _298  and  _300
REMARK  118  A    between atoms: _300  and  _301
REMARK  119  A    between atoms: _300  and  _303
REMARK  120  A    between atoms: _303  and  _304
REMARK  121  A    between atoms: _308  and  _309
REMARK  122  A    between atoms: _314  and  _316
REMARK  123  A    between atoms: _316  and  _317
REMARK  124  A    between atoms: _316  and  _319
REMARK  125  A    between atoms: _319  and  _320
REMARK  126  A    between atoms: _322  and  _324
REMARK  127  A    between atoms: _324  and  _325
REMARK  128  A    between atoms: _324  and  _327
REMARK  129  A    between atoms: _327  and  _328
REMARK  130  A    between atoms: _331  and  _333
REMARK  131  A    between atoms: _333  and  _334
REMARK  132  A    between atoms: _333  and  _336
REMARK  133  A    between atoms: _336  and  _337
REMARK  134  A    between atoms: _337  and  _338
REMARK  135  A    between atoms: _338  and  _339
REMARK  136  A    between atoms: _348  and  _350
REMARK  137  A    between atoms: _350  and  _351
REMARK  138  A    between atoms: _350  and  _353
REMARK  139  A    between atoms: _353  and  _354
REMARK  140  A    between atoms: _360  and  _362
REMARK  141  A    between atoms: _362  and  _363
REMARK  142  A    between atoms: _362  and  _365
REMARK  143  A    between atoms: _365  and  _366
REMARK  144  A    between atoms: _368  and  _370
REMARK  145  A    between atoms: _370  and  _371
REMARK  146  A    between atoms: _374  and  _376
REMARK  147  A    between atoms: _376  and  _377
REMARK  148  A    between atoms: _376  and  _379
REMARK  149  A    between atoms: _379  and  _380
REMARK  150  A    between atoms: _385  and  _386
REMARK  151  A    between atoms: _388  and  _390
REMARK  152  A    between atoms: _390  and  _391
REMARK  153  A    between atoms: _390  and  _393
REMARK  154  A    between atoms: _393  and  _394
REMARK  155  A    between atoms: _394  and  _395
REMARK  156  A    between atoms: _397  and  _399
REMARK  157  A    between atoms: _399  and  _400
REMARK  158  A    between atoms: _399  and  _402
REMARK  159  A    between atoms: _402  and  _403
REMARK  160  A    between atoms: _408  and  _409
REMARK  161  A    between atoms: _411  and  _413
REMARK  162  A    between atoms: _413  and  _414
REMARK  163  A    between atoms: _413  and  _416
REMARK  164  A    between atoms: _416  and  _417
REMARK  165  A    between atoms: _420  and  _422
REMARK  166  A    between atoms: _422  and  _423
REMARK  167  A    between atoms: _422  and  _425
REMARK  168  A    between atoms: _425  and  _426
REMARK  169  A    between atoms: _426  and  _427
REMARK  170  A    between atoms: _429  and  _431
REMARK  171  A    between atoms: _431  and  _432
REMARK  172  A    between atoms: _431  and  _434
REMARK  173  A    between atoms: _434  and  _435
REMARK  174  A    between atoms: _439  and  _440
REMARK  175  A    between atoms: _445  and  _447
REMARK  176  A    between atoms: _447  and  _448
REMARK  177  A    between atoms: _447  and  _450
REMARK  178  A    between atoms: _450  and  _451
REMARK  179  A    between atoms: _455  and  _456
REMARK  180  A    between atoms: _461  and  _463
REMARK  181  A    between atoms: _463  and  _464
REMARK  182  A    between atoms: _463  and  _466
REMARK  183  A    between atoms: _466  and  _467
REMARK  184  A    between atoms: _470  and  _472
REMARK  185  A    between atoms: _472  and  _473
REMARK  186  A    between atoms: _472  and  _475
REMARK  187  A    between atoms: _475  and  _476
REMARK  188  A    between atoms: _479  and  _481
REMARK  189  A    between atoms: _481  and  _482
REMARK  190  A    between atoms: _481  and  _484
REMARK  191  A    between atoms: _484  and  _485
REMARK  192  A    between atoms: _487  and  _489
REMARK  193  A    between atoms: _489  and  _490
REMARK  194  A    between atoms: _492  and  _494
REMARK  195  A    between atoms: _494  and  _495
REMARK  196  A    between atoms: _494  and  _497
REMARK  197  A    between atoms: _497  and  _498
REMARK  198  A    between atoms: _503  and  _504
REMARK  199  A    between atoms: _506  and  _508
REMARK  200  A    between atoms: _508  and  _509
REMARK  201  A    between atoms: _508  and  _511
REMARK  202  A    between atoms: _511  and  _512
REMARK  203  A    between atoms: _515  and  _517
REMARK  204  A    between atoms: _517  and  _518
REMARK  205  A    between atoms: _517  and  _520
REMARK  206  A    between atoms: _520  and  _521
REMARK  207  A    between atoms: _524  and  _526
REMARK  208  A    between atoms: _526  and  _527
REMARK  209  A    between atoms: _529  and  _531
REMARK  210  A    between atoms: _531  and  _532
REMARK  211  A    between atoms: _531  and  _534
REMARK  212  A    between atoms: _534  and  _535
REMARK  213  A    between atoms: _535  and  _536
REMARK  214  A    between atoms: _541  and  _543
REMARK  215  A    between atoms: _543  and  _544
REMARK  216  A    between atoms: _543  and  _546
REMARK  217  A    between atoms: _546  and  _547
REMARK  218  A    between atoms: _550  and  _552
REMARK  219  A    between atoms: _552  and  _553
REMARK  220  A    between atoms: _552  and  _555
REMARK  221  A    between atoms: _558  and  _560
REMARK  222  A    between atoms: _560  and  _561
REMARK  223  A    between atoms: _560  and  _563
REMARK  224  A    between atoms: _566  and  _568
REMARK  225  A    between atoms: _568  and  _569
REMARK  226  A    between atoms: _572  and  _574
REMARK  227  A    between atoms: _574  and  _575
REMARK  228  A    between atoms: _574  and  _577
REMARK  229  A    between atoms: _577  and  _578
REMARK  230  A    between atoms: _578  and  _579
REMARK  231  A    between atoms: _579  and  _580
REMARK  232  A    between atoms: _589  and  _591
REMARK  233  A    between atoms: _591  and  _592
REMARK  234  A    between atoms: _591  and  _594
REMARK  235  A    between atoms: _594  and  _595
REMARK  236  A    between atoms: _600  and  _602
REMARK  237  A    between atoms: _602  and  _603
REMARK  238  A    between atoms: _602  and  _605
REMARK  239  A    between atoms: _605  and  _606
REMARK  240  A    between atoms: _610  and  _611
REMARK  241  A    between atoms: _616  and  _618
REMARK  242  A    between atoms: _618  and  _619
REMARK  243  A    between atoms: _618  and  _621
REMARK  244  A    between atoms: _621  and  _622
REMARK  245  A    between atoms: _624  and  _626
REMARK  246  A    between atoms: _626  and  _627
REMARK  247  A    between atoms: _626  and  _629
REMARK  248  A    between atoms: _629  and  _630
REMARK  249  A    between atoms: _633  and  _635
REMARK  250  A    between atoms: _635  and  _636
REMARK  251  A    between atoms: _635  and  _638
REMARK  252  A    between atoms: _638  and  _639
REMARK  253  A    between atoms: _639  and  _640
REMARK  254  A    between atoms: _640  and  _641
REMARK                            x       y       z     vdW  Elec       q    Type
REMARK                         _______ _______ _______ _____ _____    ______ ____
ROOT
ATOM      1  NE  ARG A   1     -20.013  -1.322  27.790  0.00  0.00    -0.265 N 
ATOM      2  HE  ARG A   1     -20.356  -2.268  28.051  0.00  0.00    +0.259 HD
ATOM      3  CZ  ARG A   1     -20.797  -0.575  27.018  0.00  0.00    +0.342 C 
ATOM      4  NH2 ARG A   1     -20.418   0.639  26.646  0.00  0.00    -0.292 N 
ATOM      5 HH21 ARG A   1     -19.500   1.016  26.958  0.00  0.00    +0.255 HD
ATOM      6 HH22 ARG A   1     -21.038   1.215  26.042  0.00  0.00    +0.255 HD
ATOM      7  NH1 ARG A   1     -21.976  -1.040  26.635  0.00  0.00    -0.292 N 
ATOM      8 HH11 ARG A   1     -22.285  -1.986  26.938  0.00  0.00    +0.255 HD
ATOM      9 HH12 ARG A   1     -22.593  -0.460  26.031  0.00  0.00    +0.255 HD
ENDROOT
BRANCH   1  10
ATOM     10  CD  ARG A   1     -18.703  -0.912  28.300  0.00  0.00    +0.174 C 
BRANCH  10  11
ATOM     11  CG  ARG A   1     -17.556  -1.292  27.379  0.00  0.00    +0.045 C 
BRANCH  11  12
ATOM     12  CB  ARG A   1     -16.220  -1.086  28.079  0.00  0.00    +0.029 C 
BRANCH  12  13
ATOM     13  CA  ARG A   1     -15.002  -1.311  27.180  0.00  0.00    +0.133 C 
BRANCH  13  14
ATOM     14  N   ARG A   1     -14.873  -2.725  26.856  0.00  0.00    -0.239 NA
ATOM     15  H   ARG A   1     -15.490  -3.420  27.323  0.00  0.00    +0.142 HD
ENDBRANCH  13  14
BRANCH  13  16
ATOM     16  C   ARG A   1     -13.773  -0.686  27.834  0.00  0.00    +0.224 C 
ATOM     17  O   ARG A   1     -13.563   0.520  27.731  0.00  0.00    -0.287 OA
ENDBRANCH  13  16
ENDBRANCH  12  13
ENDBRANCH  11  12
ENDBRANCH  10  11
ENDBRANCH   1  10
TORSDOF 6
REMARK  Name = ../refined-set-2016/3b2q/3b2q_pocket.pdb
REMARK  254 active torsions:
REMARK  status: ('A' for Active; 'I' for Inactive)
REMARK    1  A    between atoms: _2  and  _3
REMARK    2  A    between atoms: _8  and  _10
REMARK    3  A    between atoms: _10  and  _11
REMARK    4  A    between atoms: _10  and  _13
REMARK    5  A    between atoms: _13  and  _14
REMARK    6  A    between atoms: _17  and  _19
REMARK    7  A    between atoms: _19  and  _20
REMARK    8  A    between atoms: _19  and  _22
REMARK    9  A    between atoms: _22  and  _23
REMARK   10  A    between atoms: _29  and  _31
REMARK   11  A    between atoms: _31  and  _32
REMARK   12  A    between atoms: _31  and  _34
REMARK   13  A    between atoms: _34  and  _35
REMARK   14  A    between atoms: _37  and  _39
REMARK   15  A    between atoms: _39  and  _40
REMARK   16  A    between atoms: _43  and  _45
REMARK   17  A    between atoms: _45  and  _46
REMARK   18  A    between atoms: _45  and  _48
REMARK   19  A    between atoms: _48  and  _49
REMARK   20  A    between atoms: _51  and  _53
REMARK   21  A    between atoms: _53  and  _54
REMARK   22  A    between atoms: _56  and  _58
REMARK   23  A    between atoms: _58  and  _59
REMARK   24  A    between atoms: _58  and  _61
REMARK   25  A    between atoms: _61  and  _62
REMARK   26  A    between atoms: _65  and  _67
REMARK   27  A    between atoms: _67  and  _68
REMARK   28  A    between atoms: _67  and  _70
REMARK   29  A    between atoms: _70  and  _71
REMARK   30  A    between atoms: _74  and  _76
REMARK   31  A    between atoms: _76  and  _77
REMARK   32  A    between atoms: _76  and  _79
REMARK   33  A    between atoms: _79  and  _80
REMARK   34  A    between atoms: _82  and  _84
REMARK   35  A    between atoms: _84  and  _85
REMARK   36  A    between atoms: _84  and  _87
REMARK   37  A    between atoms: _87  and  _88
REMARK   38  A    between atoms: _88  and  _89
REMARK   39  A    between atoms: _92  and  _93
REMARK   40  A    between atoms: _99  and  _100
REMARK   41  A    between atoms: _105  and  _107
REMARK   42  A    between atoms: _107  and  _108
REMARK   43  A    between atoms: _107  and  _110
REMARK   44  A    between atoms: _110  and  _111
REMARK   45  A    between atoms: _114  and  _116
REMARK   46  A    between atoms: _116  and  _117
REMARK   47  A    between atoms: _116  and  _119
REMARK   48  A    between atoms: _119  and  _120
REMARK   49  A    between atoms: _123  and  _125
REMARK   50  A    between atoms: _125  and  _126
REMARK   51  A    between atoms: _125  and  _128
REMARK   52  A    between atoms: _128  and  _129
REMARK   53  A    between atoms: _131  and  _133
REMARK   54  A    between atoms: _133  and  _134
REMARK   55  A    between atoms: _136  and  _138
REMARK   56  A    between atoms: _138  and  _139
REMARK   57  A    between atoms: _138  and  _141
REMARK   58  A    between atoms: _141  and  _142
REMARK   59  A    between atoms: _147  and  _148
REMARK   60  A    between atoms: _150  and  _152
REMARK   61  A    between atoms: _152  and  _153
REMARK   62  A    between atoms: _152  and  _155
REMARK   63  A    between atoms: _155  and  _156
REMARK   64  A    between atoms: _159  and  _161
REMARK   65  A    between atoms: _161  and  _162
REMARK   66  A    between atoms: _161  and  _164
REMARK   67  A    between atoms: _164  and  _165
REMARK   68  A    between atoms: _168  and  _170
REMARK   69  A    between atoms: _170  and  _171
REMARK   70  A    between atoms: _173  and  _175
REMARK   71  A    between atoms: _175  and  _176
REMARK   72  A    between atoms: _175  and  _178
REMARK   73  A    between atoms: _178  and  _179
REMARK   74  A    between atoms: _179  and  _180
REMARK   75  A    between atoms: _185  and  _187
REMARK   76  A    between atoms: _187  and  _188
REMARK   77  A    between atoms: _187  and  _190
REMARK   78  A    between atoms: _190  and  _191
REMARK   79  A    between atoms: _194  and  _196
REMARK   80  A    between atoms: _196  and  _197
REMARK   81  A    between atoms: _196  and  _199
REMARK   82  A    between atoms: _202  and  _204
REMARK   83  A    between atoms: _204  and  _205
REMARK   84  A    between atoms: _204  and  _207
REMARK   85  A    between atoms: _210  and  _212
REMARK   86  A    between atoms: _212  and  _213
REMARK   87  A    between atoms: _216  and  _218
REMARK   88  A    between atoms: _218  and  _219
REMARK   89  A    between atoms: _218  and  _221
REMARK   90  A    between atoms: _221  and  _222
REMARK   91  A    between atoms: _222  and  _223
REMARK   92  A    between atoms: _223  and  _224
REMARK   93  A    between atoms: _233  and  _235
REMARK   94  A    between atoms: _235  and  _236
REMARK   95  A    between atoms: _235  and  _238
REMARK   96  A    between atoms: _238  and  _239
REMARK   97  A    between atoms: _239  and  _240
REMARK   98  A    between atoms: _243  and  _245
REMARK   99  A    between atoms: _245  and  _246
REMARK  100  A    between atoms: _245  and  _248
REMARK  101  A    between atoms: _248  and  _249
REMARK  102  A    between atoms: _252  and  _254
REMARK  103  A    between atoms: _254  and  _255
REMARK  104  A    between atoms: _254  and  _257
REMARK  105  A    between atoms: _257  and  _258
REMARK  106  A    between atoms: _263  and  _265
REMARK  107  A    between atoms: _265  and  _266
REMARK  108  A    between atoms: _265  and  _268
REMARK  109  A    between atoms: _268  and  _269
REMARK  110  A    between atoms: _269  and  _270
REMARK  111  A    between atoms: _270  and  _271
REMARK  112  A    between atoms: _281  and  _282
REMARK  113  A    between atoms: _287  and  _289
REMARK  114  A    between atoms: _289  and  _290
REMARK  115  A    between atoms: _289  and  _292
REMARK  116  A    between atoms: _292  and  _293
REMARK  117  A    between atoms: _298  and  _300
REMARK  118  A    between atoms: _300  and  _301
REMARK  119  A    between atoms: _300  and  _303
REMARK  120  A    between atoms: _303  and  _304
REMARK  121  A    between atoms: _308  and  _309
REMARK  122  A    between atoms: _314  and  _316
REMARK  123  A    between atoms: _316  and  _317
REMARK  124  A    between atoms: _316  and  _319
REMARK  125  A    between atoms: _319  and  _320
REMARK  126  A    between atoms: _322  and  _324
REMARK  127  A    between atoms: _324  and  _325
REMARK  128  A    between atoms: _324  and  _327
REMARK  129  A    between atoms: _327  and  _328
REMARK  130  A    between atoms: _331  and  _333
REMARK  131  A    between atoms: _333  and  _334
REMARK  132  A    between atoms: _333  and  _336
REMARK  133  A    between atoms: _336  and  _337
REMARK  134  A    between atoms: _337  and  _338
REMARK  135  A    between atoms: _338  and  _339
REMARK  136  A    between atoms: _348  and  _350
REMARK  137  A    between atoms: _350  and  _351
REMARK  138  A    between atoms: _350  and  _353
REMARK  139  A    between atoms: _353  and  _354
REMARK  140  A    between atoms: _360  and  _362
REMARK  141  A    between atoms: _362  and  _363
REMARK  142  A    between atoms: _362  and  _365
REMARK  143  A    between atoms: _365  and  _366
REMARK  144  A    between atoms: _368  and  _370
REMARK  145  A    between atoms: _370  and  _371
REMARK  146  A    between atoms: _374  and  _376
REMARK  147  A    between atoms: _376  and  _377
REMARK  148  A    between atoms: _376  and  _379
REMARK  149  A    between atoms: _379  and  _380
REMARK  150  A    between atoms: _385  and  _386
REMARK  151  A    between atoms: _388  and  _390
REMARK  152  A    between atoms: _390  and  _391
REMARK  153  A    between atoms: _390  and  _393
REMARK  154  A    between atoms: _393  and  _394
REMARK  155  A    between atoms: _394  and  _395
REMARK  156  A    between atoms: _397  and  _399
REMARK  157  A    between atoms: _399  and  _400
REMARK  158  A    between atoms: _399  and  _402
REMARK  159  A    between atoms: _402  and  _403
REMARK  160  A    between atoms: _408  and  _409
REMARK  161  A    between atoms: _411  and  _413
REMARK  162  A    between atoms: _413  and  _414
REMARK  163  A    between atoms: _413  and  _416
REMARK  164  A    between atoms: _416  and  _417
REMARK  165  A    between atoms: _420  and  _422
REMARK  166  A    between atoms: _422  and  _423
REMARK  167  A    between atoms: _422  and  _425
REMARK  168  A    between atoms: _425  and  _426
REMARK  169  A    between atoms: _426  and  _427
REMARK  170  A    between atoms: _429  and  _431
REMARK  171  A    between atoms: _431  and  _432
REMARK  172  A    between atoms: _431  and  _434
REMARK  173  A    between atoms: _434  and  _435
REMARK  174  A    between atoms: _439  and  _440
REMARK  175  A    between atoms: _445  and  _447
REMARK  176  A    between atoms: _447  and  _448
REMARK  177  A    between atoms: _447  and  _450
REMARK  178  A    between atoms: _450  and  _451
REMARK  179  A    between atoms: _455  and  _456
REMARK  180  A    between atoms: _461  and  _463
REMARK  181  A    between atoms: _463  and  _464
REMARK  182  A    between atoms: _463  and  _466
REMARK  183  A    between atoms: _466  and  _467
REMARK  184  A    between atoms: _470  and  _472
REMARK  185  A    between atoms: _472  and  _473
REMARK  186  A    between atoms: _472  and  _475
REMARK  187  A    between atoms: _475  and  _476
REMARK  188  A    between atoms: _479  and  _481
REMARK  189  A    between atoms: _481  and  _482
REMARK  190  A    between atoms: _481  and  _484
REMARK  191  A    between atoms: _484  and  _485
REMARK  192  A    between atoms: _487  and  _489
REMARK  193  A    between atoms: _489  and  _490
REMARK  194  A    between atoms: _492  and  _494
REMARK  195  A    between atoms: _494  and  _495
REMARK  196  A    between atoms: _494  and  _497
REMARK  197  A    between atoms: _497  and  _498
REMARK  198  A    between atoms: _503  and  _504
REMARK  199  A    between atoms: _506  and  _508
REMARK  200  A    between atoms: _508  and  _509
REMARK  201  A    between atoms: _508  and  _511
REMARK  202  A    between atoms: _511  and  _512
REMARK  203  A    between atoms: _515  and  _517
REMARK  204  A    between atoms: _517  and  _518
REMARK  205  A    between atoms: _517  and  _520
REMARK  206  A    between atoms: _520  and  _521
REMARK  207  A    between atoms: _524  and  _526
REMARK  208  A    between atoms: _526  and  _527
REMARK  209  A    between atoms: _529  and  _531
REMARK  210  A    between atoms: _531  and  _532
REMARK  211  A    between atoms: _531  and  _534
REMARK  212  A    between atoms: _534  and  _535
REMARK  213  A    between atoms: _535  and  _536
REMARK  214  A    between atoms: _541  and  _543
REMARK  215  A    between atoms: _543  and  _544
REMARK  216  A    between atoms: _543  and  _546
REMARK  217  A    between atoms: _546  and  _547
REMARK  218  A    between atoms: _550  and  _552
REMARK  219  A    between atoms: _552  and  _553
REMARK  220  A    between atoms: _552  and  _555
REMARK  221  A    between atoms: _558  and  _560
REMARK  222  A    between atoms: _560  and  _561
REMARK  223  A    between atoms: _560  and  _563
REMARK  224  A    between atoms: _566  and  _568
REMARK  225  A    between atoms: _568  and  _569
REMARK  226  A    between atoms: _572  and  _574
REMARK  227  A    between atoms: _574  and  _575
REMARK  228  A    between atoms: _574  and  _577
REMARK  229  A    between atoms: _577  and  _578
REMARK  230  A    between atoms: _578  and  _579
REMARK  231  A    between atoms: _579  and  _580
REMARK  232  A    between atoms: _589  and  _591
REMARK  233  A    between atoms: _591  and  _592
REMARK  234  A    between atoms: _591  and  _594
REMARK  235  A    between atoms: _594  and  _595
REMARK  236  A    between atoms: _600  and  _602
REMARK  237  A    between atoms: _602  and  _603
REMARK  238  A    between atoms: _602  and  _605
REMARK  239  A    between atoms: _605  and  _606
REMARK  240  A    between atoms: _610  and  _611
REMARK  241  A    between atoms: _616  and  _618
REMARK  242  A    between atoms: _618  and  _619
REMARK  243  A    between atoms: _618  and  _621
REMARK  244  A    between atoms: _621  and  _622
REMARK  245  A    between atoms: _624  and  _626
REMARK  246  A    between atoms: _626  and  _627
REMARK  247  A    between atoms: _626  and  _629
REMARK  248  A    between atoms: _629  and  _630
REMARK  249  A    between atoms: _633  and  _635
REMARK  250  A    between atoms: _635  and  _636
REMARK  251  A    between atoms: _635  and  _638
REMARK  252  A    between atoms: _638  and  _639
REMARK  253  A    between atoms: _639  and  _640
REMARK  254  A    between atoms: _640  and  _641
REMARK                            x       y       z     vdW  Elec       q    Type
REMARK                         _______ _______ _______ _____ _____    ______ ____
ROOT
ATOM      1  C   PHE A   1     -32.782  -7.823  22.244  0.00  0.00    +0.239 C 
ATOM      2  O   PHE A   1     -32.718  -7.248  23.330  0.00  0.00    -0.274 OA
ATOM      3  N   SER A   2     -33.669  -8.772  21.978  0.00  0.00    -0.295 N 
ATOM      4  H   SER A   2     -33.638  -9.259  21.060  0.00  0.00    +0.150 HD
ENDROOT
BRANCH   1   5
ATOM      5  CA  PHE A   1     -31.819  -7.477  21.125  0.00  0.00    +0.149 C 
BRANCH   5   6
ATOM      6  N   PHE A   1     -32.079  -6.092  20.768  0.00  0.00    -0.238 NA
ATOM      7  H   PHE A   1     -31.619  -5.331  21.308  0.00  0.00    +0.142 HD
ENDBRANCH   5   6
BRANCH   5   8
ATOM      8  CB  PHE A   1     -30.380  -7.652  21.603  0.00  0.00    +0.053 C 
BRANCH   8   9
ATOM      9  CG  PHE A   1     -29.853  -9.033  21.401  0.00  0.00    -0.020 A 
ATOM     10  CD2 PHE A   1     -29.692  -9.899  22.471  0.00  0.00    -0.004 A 
ATOM     11  CE2 PHE A   1     -29.248 -11.203  22.266  0.00  0.00    -0.000 A 
ATOM     12  CZ  PHE A   1     -28.959 -11.649  20.989  0.00  0.00    -0.000 A 
ATOM     13  CE1 PHE A   1     -29.113 -10.793  19.911  0.00  0.00    -0.000 A 
ATOM     14  CD1 PHE A   1     -29.559  -9.490  20.121  0.00  0.00    -0.004 A 
ENDBRANCH   8   9
ENDBRANCH   5   8
ENDBRANCH   1   5
BRANCH   3  15
ATOM     15  CA  SER A   2     -34.682  -9.141  22.948  0.00  0.00    +0.178 C 
BRANCH  15  16
ATOM     16  C   SER A   2     -34.887 -10.652  23.035  0.00  0.00    +0.243 C 
ATOM     17  N   ALA A   3     -35.992 -11.052  23.653  0.00  0.00    -0.298 N 
ATOM     18  H   ALA A   3     -36.650 -10.340  24.030  0.00  0.00    +0.150 HD
ATOM     19  O   SER A   2     -34.065 -11.437  22.559  0.00  0.00    -0.273 OA
BRANCH  17  20
ATOM     20  CA  ALA A   3     -36.303 -12.465  23.815  0.00  0.00    +0.137 C 
ATOM     21  CB  ALA A   3     -35.644 -13.001  25.081  0.00  0.00    +0.030 C 
BRANCH  20  22
ATOM     22  C   ALA A   3     -37.811 -12.653  23.880  0.00  0.00    +0.227 C 
ATOM     23  O   ALA A   3     -38.553 -11.689  24.034  0.00  0.00    -0.286 OA
ENDBRANCH  20  22
ENDBRANCH  17  20
ENDBRANCH  15  16
BRANCH  15  24
ATOM     24  CB  SER A   2     -35.995  -8.446  22.567  0.00  0.00    +0.166 C 
BRANCH  24  25
ATOM     25  OG  SER A   2     -36.991  -8.625  23.552  0.00  0.00    -0.380 OA
ATOM     26  H   SER A   2     -37.173  -9.592  23.664  0.00  0.00    +0.211 HD
ENDBRANCH  24  25
ENDBRANCH  15  24
ENDBRANCH   3  15
TORSDOF 10
REMARK  Name = ../refined-set-2016/3b2q/3b2q_pocket.pdb
REMARK  254 active torsions:
REMARK  status: ('A' for Active; 'I' for Inactive)
REMARK    1  A    between atoms: _2  and  _3
REMARK    2  A    between atoms: _8  and  _10
REMARK    3  A    between atoms: _10  and  _11
REMARK    4  A    between atoms: _10  and  _13
REMARK    5  A    between atoms: _13  and  _14
REMARK    6  A    between atoms: _17  and  _19
REMARK    7  A    between atoms: _19  and  _20
REMARK    8  A    between atoms: _19  and  _22
REMARK    9  A    between atoms: _22  and  _23
REMARK   10  A    between atoms: _29  and  _31
REMARK   11  A    between atoms: _31  and  _32
REMARK   12  A    between atoms: _31  and  _34
REMARK   13  A    between atoms: _34  and  _35
REMARK   14  A    between atoms: _37  and  _39
REMARK   15  A    between atoms: _39  and  _40
REMARK   16  A    between atoms: _43  and  _45
REMARK   17  A    between atoms: _45  and  _46
REMARK   18  A    between atoms: _45  and  _48
REMARK   19  A    between atoms: _48  and  _49
REMARK   20  A    between atoms: _51  and  _53
REMARK   21  A    between atoms: _53  and  _54
REMARK   22  A    between atoms: _56  and  _58
REMARK   23  A    between atoms: _58  and  _59
REMARK   24  A    between atoms: _58  and  _61
REMARK   25  A    between atoms: _61  and  _62
REMARK   26  A    between atoms: _65  and  _67
REMARK   27  A    between atoms: _67  and  _68
REMARK   28  A    between atoms: _67  and  _70
REMARK   29  A    between atoms: _70  and  _71
REMARK   30  A    between atoms: _74  and  _76
REMARK   31  A    between atoms: _76  and  _77
REMARK   32  A    between atoms: _76  and  _79
REMARK   33  A    between atoms: _79  and  _80
REMARK   34  A    between atoms: _82  and  _84
REMARK   35  A    between atoms: _84  and  _85
REMARK   36  A    between atoms: _84  and  _87
REMARK   37  A    between atoms: _87  and  _88
REMARK   38  A    between atoms: _88  and  _89
REMARK   39  A    between atoms: _92  and  _93
REMARK   40  A    between atoms: _99  and  _100
REMARK   41  A    between atoms: _105  and  _107
REMARK   42  A    between atoms: _107  and  _108
REMARK   43  A    between atoms: _107  and  _110
REMARK   44  A    between atoms: _110  and  _111
REMARK   45  A    between atoms: _114  and  _116
REMARK   46  A    between atoms: _116  and  _117
REMARK   47  A    between atoms: _116  and  _119
REMARK   48  A    between atoms: _119  and  _120
REMARK   49  A    between atoms: _123  and  _125
REMARK   50  A    between atoms: _125  and  _126
REMARK   51  A    between atoms: _125  and  _128
REMARK   52  A    between atoms: _128  and  _129
REMARK   53  A    between atoms: _131  and  _133
REMARK   54  A    between atoms: _133  and  _134
REMARK   55  A    between atoms: _136  and  _138
REMARK   56  A    between atoms: _138  and  _139
REMARK   57  A    between atoms: _138  and  _141
REMARK   58  A    between atoms: _141  and  _142
REMARK   59  A    between atoms: _147  and  _148
REMARK   60  A    between atoms: _150  and  _152
REMARK   61  A    between atoms: _152  and  _153
REMARK   62  A    between atoms: _152  and  _155
REMARK   63  A    between atoms: _155  and  _156
REMARK   64  A    between atoms: _159  and  _161
REMARK   65  A    between atoms: _161  and  _162
REMARK   66  A    between atoms: _161  and  _164
REMARK   67  A    between atoms: _164  and  _165
REMARK   68  A    between atoms: _168  and  _170
REMARK   69  A    between atoms: _170  and  _171
REMARK   70  A    between atoms: _173  and  _175
REMARK   71  A    between atoms: _175  and  _176
REMARK   72  A    between atoms: _175  and  _178
REMARK   73  A    between atoms: _178  and  _179
REMARK   74  A    between atoms: _179  and  _180
REMARK   75  A    between atoms: _185  and  _187
REMARK   76  A    between atoms: _187  and  _188
REMARK   77  A    between atoms: _187  and  _190
REMARK   78  A    between atoms: _190  and  _191
REMARK   79  A    between atoms: _194  and  _196
REMARK   80  A    between atoms: _196  and  _197
REMARK   81  A    between atoms: _196  and  _199
REMARK   82  A    between atoms: _202  and  _204
REMARK   83  A    between atoms: _204  and  _205
REMARK   84  A    between atoms: _204  and  _207
REMARK   85  A    between atoms: _210  and  _212
REMARK   86  A    between atoms: _212  and  _213
REMARK   87  A    between atoms: _216  and  _218
REMARK   88  A    between atoms: _218  and  _219
REMARK   89  A    between atoms: _218  and  _221
REMARK   90  A    between atoms: _221  and  _222
REMARK   91  A    between atoms: _222  and  _223
REMARK   92  A    between atoms: _223  and  _224
REMARK   93  A    between atoms: _233  and  _235
REMARK   94  A    between atoms: _235  and  _236
REMARK   95  A    between atoms: _235  and  _238
REMARK   96  A    between atoms: _238  and  _239
REMARK   97  A    between atoms: _239  and  _240
REMARK   98  A    between atoms: _243  and  _245
REMARK   99  A    between atoms: _245  and  _246
REMARK  100  A    between atoms: _245  and  _248
REMARK  101  A    between atoms: _248  and  _249
REMARK  102  A    between atoms: _252  and  _254
REMARK  103  A    between atoms: _254  and  _255
REMARK  104  A    between atoms: _254  and  _257
REMARK  105  A    between atoms: _257  and  _258
REMARK  106  A    between atoms: _263  and  _265
REMARK  107  A    between atoms: _265  and  _266
REMARK  108  A    between atoms: _265  and  _268
REMARK  109  A    between atoms: _268  and  _269
REMARK  110  A    between atoms: _269  and  _270
REMARK  111  A    between atoms: _270  and  _271
REMARK  112  A    between atoms: _281  and  _282
REMARK  113  A    between atoms: _287  and  _289
REMARK  114  A    between atoms: _289  and  _290
REMARK  115  A    between atoms: _289  and  _292
REMARK  116  A    between atoms: _292  and  _293
REMARK  117  A    between atoms: _298  and  _300
REMARK  118  A    between atoms: _300  and  _301
REMARK  119  A    between atoms: _300  and  _303
REMARK  120  A    between atoms: _303  and  _304
REMARK  121  A    between atoms: _308  and  _309
REMARK  122  A    between atoms: _314  and  _316
REMARK  123  A    between atoms: _316  and  _317
REMARK  124  A    between atoms: _316  and  _319
REMARK  125  A    between atoms: _319  and  _320
REMARK  126  A    between atoms: _322  and  _324
REMARK  127  A    between atoms: _324  and  _325
REMARK  128  A    between atoms: _324  and  _327
REMARK  129  A    between atoms: _327  and  _328
REMARK  130  A    between atoms: _331  and  _333
REMARK  131  A    between atoms: _333  and  _334
REMARK  132  A    between atoms: _333  and  _336
REMARK  133  A    between atoms: _336  and  _337
REMARK  134  A    between atoms: _337  and  _338
REMARK  135  A    between atoms: _338  and  _339
REMARK  136  A    between atoms: _348  and  _350
REMARK  137  A    between atoms: _350  and  _351
REMARK  138  A    between atoms: _350  and  _353
REMARK  139  A    between atoms: _353  and  _354
REMARK  140  A    between atoms: _360  and  _362
REMARK  141  A    between atoms: _362  and  _363
REMARK  142  A    between atoms: _362  and  _365
REMARK  143  A    between atoms: _365  and  _366
REMARK  144  A    between atoms: _368  and  _370
REMARK  145  A    between atoms: _370  and  _371
REMARK  146  A    between atoms: _374  and  _376
REMARK  147  A    between atoms: _376  and  _377
REMARK  148  A    between atoms: _376  and  _379
REMARK  149  A    between atoms: _379  and  _380
REMARK  150  A    between atoms: _385  and  _386
REMARK  151  A    between atoms: _388  and  _390
REMARK  152  A    between atoms: _390  and  _391
REMARK  153  A    between atoms: _390  and  _393
REMARK  154  A    between atoms: _393  and  _394
REMARK  155  A    between atoms: _394  and  _395
REMARK  156  A    between atoms: _397  and  _399
REMARK  157  A    between atoms: _399  and  _400
REMARK  158  A    between atoms: _399  and  _402
REMARK  159  A    between atoms: _402  and  _403
REMARK  160  A    between atoms: _408  and  _409
REMARK  161  A    between atoms: _411  and  _413
REMARK  162  A    between atoms: _413  and  _414
REMARK  163  A    between atoms: _413  and  _416
REMARK  164  A    between atoms: _416  and  _417
REMARK  165  A    between atoms: _420  and  _422
REMARK  166  A    between atoms: _422  and  _423
REMARK  167  A    between atoms: _422  and  _425
REMARK  168  A    between atoms: _425  and  _426
REMARK  169  A    between atoms: _426  and  _427
REMARK  170  A    between atoms: _429  and  _431
REMARK  171  A    between atoms: _431  and  _432
REMARK  172  A    between atoms: _431  and  _434
REMARK  173  A    between atoms: _434  and  _435
REMARK  174  A    between atoms: _439  and  _440
REMARK  175  A    between atoms: _445  and  _447
REMARK  176  A    between atoms: _447  and  _448
REMARK  177  A    between atoms: _447  and  _450
REMARK  178  A    between atoms: _450  and  _451
REMARK  179  A    between atoms: _455  and  _456
REMARK  180  A    between atoms: _461  and  _463
REMARK  181  A    between atoms: _463  and  _464
REMARK  182  A    between atoms: _463  and  _466
REMARK  183  A    between atoms: _466  and  _467
REMARK  184  A    between atoms: _470  and  _472
REMARK  185  A    between atoms: _472  and  _473
REMARK  186  A    between atoms: _472  and  _475
REMARK  187  A    between atoms: _475  and  _476
REMARK  188  A    between atoms: _479  and  _481
REMARK  189  A    between atoms: _481  and  _482
REMARK  190  A    between atoms: _481  and  _484
REMARK  191  A    between atoms: _484  and  _485
REMARK  192  A    between atoms: _487  and  _489
REMARK  193  A    between atoms: _489  and  _490
REMARK  194  A    between atoms: _492  and  _494
REMARK  195  A    between atoms: _494  and  _495
REMARK  196  A    between atoms: _494  and  _497
REMARK  197  A    between atoms: _497  and  _498
REMARK  198  A    between atoms: _503  and  _504
REMARK  199  A    between atoms: _506  and  _508
REMARK  200  A    between atoms: _508  and  _509
REMARK  201  A    between atoms: _508  and  _511
REMARK  202  A    between atoms: _511  and  _512
REMARK  203  A    between atoms: _515  and  _517
REMARK  204  A    between atoms: _517  and  _518
REMARK  205  A    between atoms: _517  and  _520
REMARK  206  A    between atoms: _520  and  _521
REMARK  207  A    between atoms: _524  and  _526
REMARK  208  A    between atoms: _526  and  _527
REMARK  209  A    between atoms: _529  and  _531
REMARK  210  A    between atoms: _531  and  _532
REMARK  211  A    between atoms: _531  and  _534
REMARK  212  A    between atoms: _534  and  _535
REMARK  213  A    between atoms: _535  and  _536
REMARK  214  A    between atoms: _541  and  _543
REMARK  215  A    between atoms: _543  and  _544
REMARK  216  A    between atoms: _543  and  _546
REMARK  217  A    between atoms: _546  and  _547
REMARK  218  A    between atoms: _550  and  _552
REMARK  219  A    between atoms: _552  and  _553
REMARK  220  A    between atoms: _552  and  _555
REMARK  221  A    between atoms: _558  and  _560
REMARK  222  A    between atoms: _560  and  _561
REMARK  223  A    between atoms: _560  and  _563
REMARK  224  A    between atoms: _566  and  _568
REMARK  225  A    between atoms: _568  and  _569
REMARK  226  A    between atoms: _572  and  _574
REMARK  227  A    between atoms: _574  and  _575
REMARK  228  A    between atoms: _574  and  _577
REMARK  229  A    between atoms: _577  and  _578
REMARK  230  A    between atoms: _578  and  _579
REMARK  231  A    between atoms: _579  and  _580
REMARK  232  A    between atoms: _589  and  _591
REMARK  233  A    between atoms: _591  and  _592
REMARK  234  A    between atoms: _591  and  _594
REMARK  235  A    between atoms: _594  and  _595
REMARK  236  A    between atoms: _600  and  _602
REMARK  237  A    between atoms: _602  and  _603
REMARK  238  A    between atoms: _602  and  _605
REMARK  239  A    between atoms: _605  and  _606
REMARK  240  A    between atoms: _610  and  _611
REMARK  241  A    between atoms: _616  and  _618
REMARK  242  A    between atoms: _618  and  _619
REMARK  243  A    between atoms: _618  and  _621
REMARK  244  A    between atoms: _621  and  _622
REMARK  245  A    between atoms: _624  and  _626
REMARK  246  A    between atoms: _626  and  _627
REMARK  247  A    between atoms: _626  and  _629
REMARK  248  A    between atoms: _629  and  _630
REMARK  249  A    between atoms: _633  and  _635
REMARK  250  A    between atoms: _635  and  _636
REMARK  251  A    between atoms: _635  and  _638
REMARK  252  A    between atoms: _638  and  _639
REMARK  253  A    between atoms: _639  and  _640
REMARK  254  A    between atoms: _640  and  _641
REMARK                            x       y       z     vdW  Elec       q    Type
REMARK                         _______ _______ _______ _____ _____    ______ ____
ROOT
ATOM      1  CG  TYR A   1     -31.493 -21.263  10.900  0.00  0.00    -0.020 A 
ATOM      2  CD2 TYR A   1     -31.168 -21.561  12.222  0.00  0.00    -0.001 A 
ATOM      3  CE2 TYR A   1     -32.058 -21.293  13.258  0.00  0.00    +0.036 A 
ATOM      4  CZ  TYR A   1     -33.288 -20.722  12.968  0.00  0.00    +0.134 A 
ATOM      5  CE1 TYR A   1     -33.630 -20.422  11.664  0.00  0.00    +0.036 A 
ATOM      6  CD1 TYR A   1     -32.733 -20.691  10.641  0.00  0.00    -0.001 A 
ENDROOT
BRANCH   4   7
ATOM      7  OH  TYR A   1     -34.178 -20.445  13.977  0.00  0.00    -0.506 OA
ATOM      8  HH  TYR A   1     -33.786 -20.717  14.845  0.00  0.00    +0.292 HD
ENDBRANCH   4   7
BRANCH   1   9
ATOM      9  CB  TYR A   1     -30.540 -21.581   9.776  0.00  0.00    +0.051 C 
BRANCH   9  10
ATOM     10  CA  TYR A   1     -30.571 -23.054   9.374  0.00  0.00    +0.137 C 
BRANCH  10  11
ATOM     11  N   TYR A   1     -30.306 -23.887  10.537  0.00  0.00    -0.239 NA
ATOM     12  H   TYR A   1     -29.529 -23.634  11.180  0.00  0.00    +0.142 HD
ENDBRANCH  10  11
BRANCH  10  13
ATOM     13  C   TYR A   1     -29.572 -23.316   8.261  0.00  0.00    +0.224 C 
ATOM     14  O   TYR A   1     -28.435 -23.699   8.517  0.00  0.00    -0.287 OA
ENDBRANCH  10  13
ENDBRANCH   9  10
ENDBRANCH   1   9
TORSDOF 5
REMARK  Name = ../refined-set-2016/3b2q/3b2q_pocket.pdb
REMARK  254 active torsions:
REMARK  status: ('A' for Active; 'I' for Inactive)
REMARK    1  A    between atoms: _2  and  _3
REMARK    2  A    between atoms: _8  and  _10
REMARK    3  A    between atoms: _10  and  _11
REMARK    4  A    between atoms: _10  and  _13
REMARK    5  A    between atoms: _13  and  _14
REMARK    6  A    between atoms: _17  and  _19
REMARK    7  A    between atoms: _19  and  _20
REMARK    8  A    between atoms: _19  and  _22
REMARK    9  A    between atoms: _22  and  _23
REMARK   10  A    between atoms: _29  and  _31
REMARK   11  A    between atoms: _31  and  _32
REMARK   12  A    between atoms: _31  and  _34
REMARK   13  A    between atoms: _34  and  _35
REMARK   14  A    between atoms: _37  and  _39
REMARK   15  A    between atoms: _39  and  _40
REMARK   16  A    between atoms: _43  and  _45
REMARK   17  A    between atoms: _45  and  _46
REMARK   18  A    between atoms: _45  and  _48
REMARK   19  A    between atoms: _48  and  _49
REMARK   20  A    between atoms: _51  and  _53
REMARK   21  A    between atoms: _53  and  _54
REMARK   22  A    between atoms: _56  and  _58
REMARK   23  A    between atoms: _58  and  _59
REMARK   24  A    between atoms: _58  and  _61
REMARK   25  A    between atoms: _61  and  _62
REMARK   26  A    between atoms: _65  and  _67
REMARK   27  A    between atoms: _67  and  _68
REMARK   28  A    between atoms: _67  and  _70
REMARK   29  A    between atoms: _70  and  _71
REMARK   30  A    between atoms: _74  and  _76
REMARK   31  A    between atoms: _76  and  _77
REMARK   32  A    between atoms: _76  and  _79
REMARK   33  A    between atoms: _79  and  _80
REMARK   34  A    between atoms: _82  and  _84
REMARK   35  A    between atoms: _84  and  _85
REMARK   36  A    between atoms: _84  and  _87
REMARK   37  A    between atoms: _87  and  _88
REMARK   38  A    between atoms: _88  and  _89
REMARK   39  A    between atoms: _92  and  _93
REMARK   40  A    between atoms: _99  and  _100
REMARK   41  A    between atoms: _105  and  _107
REMARK   42  A    between atoms: _107  and  _108
REMARK   43  A    between atoms: _107  and  _110
REMARK   44  A    between atoms: _110  and  _111
REMARK   45  A    between atoms: _114  and  _116
REMARK   46  A    between atoms: _116  and  _117
REMARK   47  A    between atoms: _116  and  _119
REMARK   48  A    between atoms: _119  and  _120
REMARK   49  A    between atoms: _123  and  _125
REMARK   50  A    between atoms: _125  and  _126
REMARK   51  A    between atoms: _125  and  _128
REMARK   52  A    between atoms: _128  and  _129
REMARK   53  A    between atoms: _131  and  _133
REMARK   54  A    between atoms: _133  and  _134
REMARK   55  A    between atoms: _136  and  _138
REMARK   56  A    between atoms: _138  and  _139
REMARK   57  A    between atoms: _138  and  _141
REMARK   58  A    between atoms: _141  and  _142
REMARK   59  A    between atoms: _147  and  _148
REMARK   60  A    between atoms: _150  and  _152
REMARK   61  A    between atoms: _152  and  _153
REMARK   62  A    between atoms: _152  and  _155
REMARK   63  A    between atoms: _155  and  _156
REMARK   64  A    between atoms: _159  and  _161
REMARK   65  A    between atoms: _161  and  _162
REMARK   66  A    between atoms: _161  and  _164
REMARK   67  A    between atoms: _164  and  _165
REMARK   68  A    between atoms: _168  and  _170
REMARK   69  A    between atoms: _170  and  _171
REMARK   70  A    between atoms: _173  and  _175
REMARK   71  A    between atoms: _175  and  _176
REMARK   72  A    between atoms: _175  and  _178
REMARK   73  A    between atoms: _178  and  _179
REMARK   74  A    between atoms: _179  and  _180
REMARK   75  A    between atoms: _185  and  _187
REMARK   76  A    between atoms: _187  and  _188
REMARK   77  A    between atoms: _187  and  _190
REMARK   78  A    between atoms: _190  and  _191
REMARK   79  A    between atoms: _194  and  _196
REMARK   80  A    between atoms: _196  and  _197
REMARK   81  A    between atoms: _196  and  _199
REMARK   82  A    between atoms: _202  and  _204
REMARK   83  A    between atoms: _204  and  _205
REMARK   84  A    between atoms: _204  and  _207
REMARK   85  A    between atoms: _210  and  _212
REMARK   86  A    between atoms: _212  and  _213
REMARK   87  A    between atoms: _216  and  _218
REMARK   88  A    between atoms: _218  and  _219
REMARK   89  A    between atoms: _218  and  _221
REMARK   90  A    between atoms: _221  and  _222
REMARK   91  A    between atoms: _222  and  _223
REMARK   92  A    between atoms: _223  and  _224
REMARK   93  A    between atoms: _233  and  _235
REMARK   94  A    between atoms: _235  and  _236
REMARK   95  A    between atoms: _235  and  _238
REMARK   96  A    between atoms: _238  and  _239
REMARK   97  A    between atoms: _239  and  _240
REMARK   98  A    between atoms: _243  and  _245
REMARK   99  A    between atoms: _245  and  _246
REMARK  100  A    between atoms: _245  and  _248
REMARK  101  A    between atoms: _248  and  _249
REMARK  102  A    between atoms: _252  and  _254
REMARK  103  A    between atoms: _254  and  _255
REMARK  104  A    between atoms: _254  and  _257
REMARK  105  A    between atoms: _257  and  _258
REMARK  106  A    between atoms: _263  and  _265
REMARK  107  A    between atoms: _265  and  _266
REMARK  108  A    between atoms: _265  and  _268
REMARK  109  A    between atoms: _268  and  _269
REMARK  110  A    between atoms: _269  and  _270
REMARK  111  A    between atoms: _270  and  _271
REMARK  112  A    between atoms: _281  and  _282
REMARK  113  A    between atoms: _287  and  _289
REMARK  114  A    between atoms: _289  and  _290
REMARK  115  A    between atoms: _289  and  _292
REMARK  116  A    between atoms: _292  and  _293
REMARK  117  A    between atoms: _298  and  _300
REMARK  118  A    between atoms: _300  and  _301
REMARK  119  A    between atoms: _300  and  _303
REMARK  120  A    between atoms: _303  and  _304
REMARK  121  A    between atoms: _308  and  _309
REMARK  122  A    between atoms: _314  and  _316
REMARK  123  A    between atoms: _316  and  _317
REMARK  124  A    between atoms: _316  and  _319
REMARK  125  A    between atoms: _319  and  _320
REMARK  126  A    between atoms: _322  and  _324
REMARK  127  A    between atoms: _324  and  _325
REMARK  128  A    between atoms: _324  and  _327
REMARK  129  A    between atoms: _327  and  _328
REMARK  130  A    between atoms: _331  and  _333
REMARK  131  A    between atoms: _333  and  _334
REMARK  132  A    between atoms: _333  and  _336
REMARK  133  A    between atoms: _336  and  _337
REMARK  134  A    between atoms: _337  and  _338
REMARK  135  A    between atoms: _338  and  _339
REMARK  136  A    between atoms: _348  and  _350
REMARK  137  A    between atoms: _350  and  _351
REMARK  138  A    between atoms: _350  and  _353
REMARK  139  A    between atoms: _353  and  _354
REMARK  140  A    between atoms: _360  and  _362
REMARK  141  A    between atoms: _362  and  _363
REMARK  142  A    between atoms: _362  and  _365
REMARK  143  A    between atoms: _365  and  _366
REMARK  144  A    between atoms: _368  and  _370
REMARK  145  A    between atoms: _370  and  _371
REMARK  146  A    between atoms: _374  and  _376
REMARK  147  A    between atoms: _376  and  _377
REMARK  148  A    between atoms: _376  and  _379
REMARK  149  A    between atoms: _379  and  _380
REMARK  150  A    between atoms: _385  and  _386
REMARK  151  A    between atoms: _388  and  _390
REMARK  152  A    between atoms: _390  and  _391
REMARK  153  A    between atoms: _390  and  _393
REMARK  154  A    between atoms: _393  and  _394
REMARK  155  A    between atoms: _394  and  _395
REMARK  156  A    between atoms: _397  and  _399
REMARK  157  A    between atoms: _399  and  _400
REMARK  158  A    between atoms: _399  and  _402
REMARK  159  A    between atoms: _402  and  _403
REMARK  160  A    between atoms: _408  and  _409
REMARK  161  A    between atoms: _411  and  _413
REMARK  162  A    between atoms: _413  and  _414
REMARK  163  A    between atoms: _413  and  _416
REMARK  164  A    between atoms: _416  and  _417
REMARK  165  A    between atoms: _420  and  _422
REMARK  166  A    between atoms: _422  and  _423
REMARK  167  A    between atoms: _422  and  _425
REMARK  168  A    between atoms: _425  and  _426
REMARK  169  A    between atoms: _426  and  _427
REMARK  170  A    between atoms: _429  and  _431
REMARK  171  A    between atoms: _431  and  _432
REMARK  172  A    between atoms: _431  and  _434
REMARK  173  A    between atoms: _434  and  _435
REMARK  174  A    between atoms: _439  and  _440
REMARK  175  A    between atoms: _445  and  _447
REMARK  176  A    between atoms: _447  and  _448
REMARK  177  A    between atoms: _447  and  _450
REMARK  178  A    between atoms: _450  and  _451
REMARK  179  A    between atoms: _455  and  _456
REMARK  180  A    between atoms: _461  and  _463
REMARK  181  A    between atoms: _463  and  _464
REMARK  182  A    between atoms: _463  and  _466
REMARK  183  A    between atoms: _466  and  _467
REMARK  184  A    between atoms: _470  and  _472
REMARK  185  A    between atoms: _472  and  _473
REMARK  186  A    between atoms: _472  and  _475
REMARK  187  A    between atoms: _475  and  _476
REMARK  188  A    between atoms: _479  and  _481
REMARK  189  A    between atoms: _481  and  _482
REMARK  190  A    between atoms: _481  and  _484
REMARK  191  A    between atoms: _484  and  _485
REMARK  192  A    between atoms: _487  and  _489
REMARK  193  A    between atoms: _489  and  _490
REMARK  194  A    between atoms: _492  and  _494
REMARK  195  A    between atoms: _494  and  _495
REMARK  196  A    between atoms: _494  and  _497
REMARK  197  A    between atoms: _497  and  _498
REMARK  198  A    between atoms: _503  and  _504
REMARK  199  A    between atoms: _506  and  _508
REMARK  200  A    between atoms: _508  and  _509
REMARK  201  A    between atoms: _508  and  _511
REMARK  202  A    between atoms: _511  and  _512
REMARK  203  A    between atoms: _515  and  _517
REMARK  204  A    between atoms: _517  and  _518
REMARK  205  A    between atoms: _517  and  _520
REMARK  206  A    between atoms: _520  and  _521
REMARK  207  A    between atoms: _524  and  _526
REMARK  208  A    between atoms: _526  and  _527
REMARK  209  A    between atoms: _529  and  _531
REMARK  210  A    between atoms: _531  and  _532
REMARK  211  A    between atoms: _531  and  _534
REMARK  212  A    between atoms: _534  and  _535
REMARK  213  A    between atoms: _535  and  _536
REMARK  214  A    between atoms: _541  and  _543
REMARK  215  A    between atoms: _543  and  _544
REMARK  216  A    between atoms: _543  and  _546
REMARK  217  A    between atoms: _546  and  _547
REMARK  218  A    between atoms: _550  and  _552
REMARK  219  A    between atoms: _552  and  _553
REMARK  220  A    between atoms: _552  and  _555
REMARK  221  A    between atoms: _558  and  _560
REMARK  222  A    between atoms: _560  and  _561
REMARK  223  A    between atoms: _560  and  _563
REMARK  224  A    between atoms: _566  and  _568
REMARK  225  A    between atoms: _568  and  _569
REMARK  226  A    between atoms: _572  and  _574
REMARK  227  A    between atoms: _574  and  _575
REMARK  228  A    between atoms: _574  and  _577
REMARK  229  A    between atoms: _577  and  _578
REMARK  230  A    between atoms: _578  and  _579
REMARK  231  A    between atoms: _579  and  _580
REMARK  232  A    between atoms: _589  and  _591
REMARK  233  A    between atoms: _591  and  _592
REMARK  234  A    between atoms: _591  and  _594
REMARK  235  A    between atoms: _594  and  _595
REMARK  236  A    between atoms: _600  and  _602
REMARK  237  A    between atoms: _602  and  _603
REMARK  238  A    between atoms: _602  and  _605
REMARK  239  A    between atoms: _605  and  _606
REMARK  240  A    between atoms: _610  and  _611
REMARK  241  A    between atoms: _616  and  _618
REMARK  242  A    between atoms: _618  and  _619
REMARK  243  A    between atoms: _618  and  _621
REMARK  244  A    between atoms: _621  and  _622
REMARK  245  A    between atoms: _624  and  _626
REMARK  246  A    between atoms: _626  and  _627
REMARK  247  A    between atoms: _626  and  _629
REMARK  248  A    between atoms: _629  and  _630
REMARK  249  A    between atoms: _633  and  _635
REMARK  250  A    between atoms: _635  and  _636
REMARK  251  A    between atoms: _635  and  _638
REMARK  252  A    between atoms: _638  and  _639
REMARK  253  A    between atoms: _639  and  _640
REMARK  254  A    between atoms: _640  and  _641
REMARK                            x       y       z     vdW  Elec       q    Type
REMARK                         _______ _______ _______ _____ _____    ______ ____
ROOT
ATOM      1  CA  TYR A   2     -25.344 -15.749   6.776  0.00  0.00    +0.141 C 
ENDROOT
BRANCH   1   3
ATOM      2  C   MET A   1     -27.509 -16.505   6.000  0.00  0.00    +0.238 C 
ATOM      3  N   TYR A   2     -26.268 -16.796   6.366  0.00  0.00    -0.298 N 
ATOM      4  H   TYR A   2     -25.951 -17.786   6.360  0.00  0.00    +0.150 HD
ATOM      5  O   MET A   1     -27.936 -15.354   5.960  0.00  0.00    -0.274 OA
BRANCH   2   6
ATOM      6  CA  MET A   1     -28.404 -17.683   5.622  0.00  0.00    +0.146 C 
BRANCH   6   7
ATOM      7  N   MET A   1     -27.693 -18.687   4.838  0.00  0.00    -0.238 NA
ATOM      8  H   MET A   1     -27.679 -19.674   5.165  0.00  0.00    +0.142 HD
ENDBRANCH   6   7
BRANCH   6   9
ATOM      9  CB  MET A   1     -28.973 -18.302   6.904  0.00  0.00    +0.038 C 
BRANCH   9  10
ATOM     10  CG  MET A   1     -29.594 -17.277   7.852  0.00  0.00    +0.060 C 
BRANCH  10  11
ATOM     11  SD  MET A   1     -30.424 -17.983   9.298  0.00  0.00    -0.139 S 
ATOM     12  CE  MET A   1     -29.017 -18.449  10.326  0.00  0.00    +0.069 C 
ENDBRANCH  10  11
ENDBRANCH   9  10
ENDBRANCH   6   9
ENDBRANCH   2   6
ENDBRANCH   1   3
BRANCH   1  13
ATOM     13  C   TYR A   2     -25.085 -14.743   5.666  0.00  0.00    +0.227 C 
ATOM     14  O   TYR A   2     -25.058 -13.537   5.908  0.00  0.00    -0.286 OA
ENDBRANCH   1  13
BRANCH   1  15
ATOM     15  CB  TYR A   2     -24.041 -16.377   7.263  0.00  0.00    +0.054 C 
BRANCH  15  16
ATOM     16  CG  TYR A   2     -24.282 -17.465   8.283  0.00  0.00    -0.020 A 
ATOM     17  CD2 TYR A   2     -24.987 -17.199   9.460  0.00  0.00    -0.001 A 
ATOM     18  CE2 TYR A   2     -25.245 -18.206  10.386  0.00  0.00    +0.036 A 
ATOM     19  CZ  TYR A   2     -24.792 -19.495  10.139  0.00  0.00    +0.134 A 
ATOM     20  CE1 TYR A   2     -24.091 -19.781   8.979  0.00  0.00    +0.036 A 
ATOM     21  CD1 TYR A   2     -23.839 -18.767   8.059  0.00  0.00    -0.001 A 
BRANCH  19  22
ATOM     22  OH  TYR A   2     -25.035 -20.490  11.056  0.00  0.00    -0.506 OA
ATOM     23  HH  TYR A   2     -25.543 -20.117  11.819  0.00  0.00    +0.292 HD
ENDBRANCH  19  22
ENDBRANCH  15  16
ENDBRANCH   1  15
TORSDOF 10
REMARK  Name = ../refined-set-2016/3b2q/3b2q_pocket.pdb
REMARK  254 active torsions:
REMARK  status: ('A' for Active; 'I' for Inactive)
REMARK    1  A    between atoms: _2  and  _3
REMARK    2  A    between atoms: _8  and  _10
REMARK    3  A    between atoms: _10  and  _11
REMARK    4  A    between atoms: _10  and  _13
REMARK    5  A    between atoms: _13  and  _14
REMARK    6  A    between atoms: _17  and  _19
REMARK    7  A    between atoms: _19  and  _20
REMARK    8  A    between atoms: _19  and  _22
REMARK    9  A    between atoms: _22  and  _23
REMARK   10  A    between atoms: _29  and  _31
REMARK   11  A    between atoms: _31  and  _32
REMARK   12  A    between atoms: _31  and  _34
REMARK   13  A    between atoms: _34  and  _35
REMARK   14  A    between atoms: _37  and  _39
REMARK   15  A    between atoms: _39  and  _40
REMARK   16  A    between atoms: _43  and  _45
REMARK   17  A    between atoms: _45  and  _46
REMARK   18  A    between atoms: _45  and  _48
REMARK   19  A    between atoms: _48  and  _49
REMARK   20  A    between atoms: _51  and  _53
REMARK   21  A    between atoms: _53  and  _54
REMARK   22  A    between atoms: _56  and  _58
REMARK   23  A    between atoms: _58  and  _59
REMARK   24  A    between atoms: _58  and  _61
REMARK   25  A    between atoms: _61  and  _62
REMARK   26  A    between atoms: _65  and  _67
REMARK   27  A    between atoms: _67  and  _68
REMARK   28  A    between atoms: _67  and  _70
REMARK   29  A    between atoms: _70  and  _71
REMARK   30  A    between atoms: _74  and  _76
REMARK   31  A    between atoms: _76  and  _77
REMARK   32  A    between atoms: _76  and  _79
REMARK   33  A    between atoms: _79  and  _80
REMARK   34  A    between atoms: _82  and  _84
REMARK   35  A    between atoms: _84  and  _85
REMARK   36  A    between atoms: _84  and  _87
REMARK   37  A    between atoms: _87  and  _88
REMARK   38  A    between atoms: _88  and  _89
REMARK   39  A    between atoms: _92  and  _93
REMARK   40  A    between atoms: _99  and  _100
REMARK   41  A    between atoms: _105  and  _107
REMARK   42  A    between atoms: _107  and  _108
REMARK   43  A    between atoms: _107  and  _110
REMARK   44  A    between atoms: _110  and  _111
REMARK   45  A    between atoms: _114  and  _116
REMARK   46  A    between atoms: _116  and  _117
REMARK   47  A    between atoms: _116  and  _119
REMARK   48  A    between atoms: _119  and  _120
REMARK   49  A    between atoms: _123  and  _125
REMARK   50  A    between atoms: _125  and  _126
REMARK   51  A    between atoms: _125  and  _128
REMARK   52  A    between atoms: _128  and  _129
REMARK   53  A    between atoms: _131  and  _133
REMARK   54  A    between atoms: _133  and  _134
REMARK   55  A    between atoms: _136  and  _138
REMARK   56  A    between atoms: _138  and  _139
REMARK   57  A    between atoms: _138  and  _141
REMARK   58  A    between atoms: _141  and  _142
REMARK   59  A    between atoms: _147  and  _148
REMARK   60  A    between atoms: _150  and  _152
REMARK   61  A    between atoms: _152  and  _153
REMARK   62  A    between atoms: _152  and  _155
REMARK   63  A    between atoms: _155  and  _156
REMARK   64  A    between atoms: _159  and  _161
REMARK   65  A    between atoms: _161  and  _162
REMARK   66  A    between atoms: _161  and  _164
REMARK   67  A    between atoms: _164  and  _165
REMARK   68  A    between atoms: _168  and  _170
REMARK   69  A    between atoms: _170  and  _171
REMARK   70  A    between atoms: _173  and  _175
REMARK   71  A    between atoms: _175  and  _176
REMARK   72  A    between atoms: _175  and  _178
REMARK   73  A    between atoms: _178  and  _179
REMARK   74  A    between atoms: _179  and  _180
REMARK   75  A    between atoms: _185  and  _187
REMARK   76  A    between atoms: _187  and  _188
REMARK   77  A    between atoms: _187  and  _190
REMARK   78  A    between atoms: _190  and  _191
REMARK   79  A    between atoms: _194  and  _196
REMARK   80  A    between atoms: _196  and  _197
REMARK   81  A    between atoms: _196  and  _199
REMARK   82  A    between atoms: _202  and  _204
REMARK   83  A    between atoms: _204  and  _205
REMARK   84  A    between atoms: _204  and  _207
REMARK   85  A    between atoms: _210  and  _212
REMARK   86  A    between atoms: _212  and  _213
REMARK   87  A    between atoms: _216  and  _218
REMARK   88  A    between atoms: _218  and  _219
REMARK   89  A    between atoms: _218  and  _221
REMARK   90  A    between atoms: _221  and  _222
REMARK   91  A    between atoms: _222  and  _223
REMARK   92  A    between atoms: _223  and  _224
REMARK   93  A    between atoms: _233  and  _235
REMARK   94  A    between atoms: _235  and  _236
REMARK   95  A    between atoms: _235  and  _238
REMARK   96  A    between atoms: _238  and  _239
REMARK   97  A    between atoms: _239  and  _240
REMARK   98  A    between atoms: _243  and  _245
REMARK   99  A    between atoms: _245  and  _246
REMARK  100  A    between atoms: _245  and  _248
REMARK  101  A    between atoms: _248  and  _249
REMARK  102  A    between atoms: _252  and  _254
REMARK  103  A    between atoms: _254  and  _255
REMARK  104  A    between atoms: _254  and  _257
REMARK  105  A    between atoms: _257  and  _258
REMARK  106  A    between atoms: _263  and  _265
REMARK  107  A    between atoms: _265  and  _266
REMARK  108  A    between atoms: _265  and  _268
REMARK  109  A    between atoms: _268  and  _269
REMARK  110  A    between atoms: _269  and  _270
REMARK  111  A    between atoms: _270  and  _271
REMARK  112  A    between atoms: _281  and  _282
REMARK  113  A    between atoms: _287  and  _289
REMARK  114  A    between atoms: _289  and  _290
REMARK  115  A    between atoms: _289  and  _292
REMARK  116  A    between atoms: _292  and  _293
REMARK  117  A    between atoms: _298  and  _300
REMARK  118  A    between atoms: _300  and  _301
REMARK  119  A    between atoms: _300  and  _303
REMARK  120  A    between atoms: _303  and  _304
REMARK  121  A    between atoms: _308  and  _309
REMARK  122  A    between atoms: _314  and  _316
REMARK  123  A    between atoms: _316  and  _317
REMARK  124  A    between atoms: _316  and  _319
REMARK  125  A    between atoms: _319  and  _320
REMARK  126  A    between atoms: _322  and  _324
REMARK  127  A    between atoms: _324  and  _325
REMARK  128  A    between atoms: _324  and  _327
REMARK  129  A    between atoms: _327  and  _328
REMARK  130  A    between atoms: _331  and  _333
REMARK  131  A    between atoms: _333  and  _334
REMARK  132  A    between atoms: _333  and  _336
REMARK  133  A    between atoms: _336  and  _337
REMARK  134  A    between atoms: _337  and  _338
REMARK  135  A    between atoms: _338  and  _339
REMARK  136  A    between atoms: _348  and  _350
REMARK  137  A    between atoms: _350  and  _351
REMARK  138  A    between atoms: _350  and  _353
REMARK  139  A    between atoms: _353  and  _354
REMARK  140  A    between atoms: _360  and  _362
REMARK  141  A    between atoms: _362  and  _363
REMARK  142  A    between atoms: _362  and  _365
REMARK  143  A    between atoms: _365  and  _366
REMARK  144  A    between atoms: _368  and  _370
REMARK  145  A    between atoms: _370  and  _371
REMARK  146  A    between atoms: _374  and  _376
REMARK  147  A    between atoms: _376  and  _377
REMARK  148  A    between atoms: _376  and  _379
REMARK  149  A    between atoms: _379  and  _380
REMARK  150  A    between atoms: _385  and  _386
REMARK  151  A    between atoms: _388  and  _390
REMARK  152  A    between atoms: _390  and  _391
REMARK  153  A    between atoms: _390  and  _393
REMARK  154  A    between atoms: _393  and  _394
REMARK  155  A    between atoms: _394  and  _395
REMARK  156  A    between atoms: _397  and  _399
REMARK  157  A    between atoms: _399  and  _400
REMARK  158  A    between atoms: _399  and  _402
REMARK  159  A    between atoms: _402  and  _403
REMARK  160  A    between atoms: _408  and  _409
REMARK  161  A    between atoms: _411  and  _413
REMARK  162  A    between atoms: _413  and  _414
REMARK  163  A    between atoms: _413  and  _416
REMARK  164  A    between atoms: _416  and  _417
REMARK  165  A    between atoms: _420  and  _422
REMARK  166  A    between atoms: _422  and  _423
REMARK  167  A    between atoms: _422  and  _425
REMARK  168  A    between atoms: _425  and  _426
REMARK  169  A    between atoms: _426  and  _427
REMARK  170  A    between atoms: _429  and  _431
REMARK  171  A    between atoms: _431  and  _432
REMARK  172  A    between atoms: _431  and  _434
REMARK  173  A    between atoms: _434  and  _435
REMARK  174  A    between atoms: _439  and  _440
REMARK  175  A    between atoms: _445  and  _447
REMARK  176  A    between atoms: _447  and  _448
REMARK  177  A    between atoms: _447  and  _450
REMARK  178  A    between atoms: _450  and  _451
REMARK  179  A    between atoms: _455  and  _456
REMARK  180  A    between atoms: _461  and  _463
REMARK  181  A    between atoms: _463  and  _464
REMARK  182  A    between atoms: _463  and  _466
REMARK  183  A    between atoms: _466  and  _467
REMARK  184  A    between atoms: _470  and  _472
REMARK  185  A    between atoms: _472  and  _473
REMARK  186  A    between atoms: _472  and  _475
REMARK  187  A    between atoms: _475  and  _476
REMARK  188  A    between atoms: _479  and  _481
REMARK  189  A    between atoms: _481  and  _482
REMARK  190  A    between atoms: _481  and  _484
REMARK  191  A    between atoms: _484  and  _485
REMARK  192  A    between atoms: _487  and  _489
REMARK  193  A    between atoms: _489  and  _490
REMARK  194  A    between atoms: _492  and  _494
REMARK  195  A    between atoms: _494  and  _495
REMARK  196  A    between atoms: _494  and  _497
REMARK  197  A    between atoms: _497  and  _498
REMARK  198  A    between atoms: _503  and  _504
REMARK  199  A    between atoms: _506  and  _508
REMARK  200  A    between atoms: _508  and  _509
REMARK  201  A    between atoms: _508  and  _511
REMARK  202  A    between atoms: _511  and  _512
REMARK  203  A    between atoms: _515  and  _517
REMARK  204  A    between atoms: _517  and  _518
REMARK  205  A    between atoms: _517  and  _520
REMARK  206  A    between atoms: _520  and  _521
REMARK  207  A    between atoms: _524  and  _526
REMARK  208  A    between atoms: _526  and  _527
REMARK  209  A    between atoms: _529  and  _531
REMARK  210  A    between atoms: _531  and  _532
REMARK  211  A    between atoms: _531  and  _534
REMARK  212  A    between atoms: _534  and  _535
REMARK  213  A    between atoms: _535  and  _536
REMARK  214  A    between atoms: _541  and  _543
REMARK  215  A    between atoms: _543  and  _544
REMARK  216  A    between atoms: _543  and  _546
REMARK  217  A    between atoms: _546  and  _547
REMARK  218  A    between atoms: _550  and  _552
REMARK  219  A    between atoms: _552  and  _553
REMARK  220  A    between atoms: _552  and  _555
REMARK  221  A    between atoms: _558  and  _560
REMARK  222  A    between atoms: _560  and  _561
REMARK  223  A    between atoms: _560  and  _563
REMARK  224  A    between atoms: _566  and  _568
REMARK  225  A    between atoms: _568  and  _569
REMARK  226  A    between atoms: _572  and  _574
REMARK  227  A    between atoms: _574  and  _575
REMARK  228  A    between atoms: _574  and  _577
REMARK  229  A    between atoms: _577  and  _578
REMARK  230  A    between atoms: _578  and  _579
REMARK  231  A    between atoms: _579  and  _580
REMARK  232  A    between atoms: _589  and  _591
REMARK  233  A    between atoms: _591  and  _592
REMARK  234  A    between atoms: _591  and  _594
REMARK  235  A    between atoms: _594  and  _595
REMARK  236  A    between atoms: _600  and  _602
REMARK  237  A    between atoms: _602  and  _603
REMARK  238  A    between atoms: _602  and  _605
REMARK  239  A    between atoms: _605  and  _606
REMARK  240  A    between atoms: _610  and  _611
REMARK  241  A    between atoms: _616  and  _618
REMARK  242  A    between atoms: _618  and  _619
REMARK  243  A    between atoms: _618  and  _621
REMARK  244  A    between atoms: _621  and  _622
REMARK  245  A    between atoms: _624  and  _626
REMARK  246  A    between atoms: _626  and  _627
REMARK  247  A    between atoms: _626  and  _629
REMARK  248  A    between atoms: _629  and  _630
REMARK  249  A    between atoms: _633  and  _635
REMARK  250  A    between atoms: _635  and  _636
REMARK  251  A    between atoms: _635  and  _638
REMARK  252  A    between atoms: _638  and  _639
REMARK  253  A    between atoms: _639  and  _640
REMARK  254  A    between atoms: _640  and  _641
REMARK                            x       y       z     vdW  Elec       q    Type
REMARK                         _______ _______ _______ _____ _____    ______ ____
ROOT
ATOM      1  CA  LEU A   1     -33.565  -9.810  17.032  0.00  0.00    +0.133 C 
ENDROOT
BRANCH   1   2
ATOM      2  N   LEU A   1     -34.159  -8.480  16.994  0.00  0.00    -0.239 NA
ATOM      3  H   LEU A   1     -33.917  -7.797  17.740  0.00  0.00    +0.142 HD
ENDBRANCH   1   2
BRANCH   1   4
ATOM      4  C   LEU A   1     -33.985 -10.422  18.356  0.00  0.00    +0.224 C 
ATOM      5  O   LEU A   1     -33.354 -10.169  19.380  0.00  0.00    -0.287 OA
ENDBRANCH   1   4
BRANCH   1   6
ATOM      6  CB  LEU A   1     -32.040  -9.728  16.992  0.00  0.00    +0.025 C 
BRANCH   6   7
ATOM      7  CG  LEU A   1     -31.357  -8.769  16.014  0.00  0.00    +0.002 C 
ATOM      8  CD2 LEU A   1     -29.850  -8.862  16.238  0.00  0.00    +0.000 C 
ATOM      9  CD1 LEU A   1     -31.711  -9.110  14.571  0.00  0.00    +0.000 C 
ENDBRANCH   6   7
ENDBRANCH   1   6
TORSDOF 4
REMARK  Name = ../refined-set-2016/3b2q/3b2q_pocket.pdb
REMARK  254 active torsions:
REMARK  status: ('A' for Active; 'I' for Inactive)
REMARK    1  A    between atoms: _2  and  _3
REMARK    2  A    between atoms: _8  and  _10
REMARK    3  A    between atoms: _10  and  _11
REMARK    4  A    between atoms: _10  and  _13
REMARK    5  A    between atoms: _13  and  _14
REMARK    6  A    between atoms: _17  and  _19
REMARK    7  A    between atoms: _19  and  _20
REMARK    8  A    between atoms: _19  and  _22
REMARK    9  A    between atoms: _22  and  _23
REMARK   10  A    between atoms: _29  and  _31
REMARK   11  A    between atoms: _31  and  _32
REMARK   12  A    between atoms: _31  and  _34
REMARK   13  A    between atoms: _34  and  _35
REMARK   14  A    between atoms: _37  and  _39
REMARK   15  A    between atoms: _39  and  _40
REMARK   16  A    between atoms: _43  and  _45
REMARK   17  A    between atoms: _45  and  _46
REMARK   18  A    between atoms: _45  and  _48
REMARK   19  A    between atoms: _48  and  _49
REMARK   20  A    between atoms: _51  and  _53
REMARK   21  A    between atoms: _53  and  _54
REMARK   22  A    between atoms: _56  and  _58
REMARK   23  A    between atoms: _58  and  _59
REMARK   24  A    between atoms: _58  and  _61
REMARK   25  A    between atoms: _61  and  _62
REMARK   26  A    between atoms: _65  and  _67
REMARK   27  A    between atoms: _67  and  _68
REMARK   28  A    between atoms: _67  and  _70
REMARK   29  A    between atoms: _70  and  _71
REMARK   30  A    between atoms: _74  and  _76
REMARK   31  A    between atoms: _76  and  _77
REMARK   32  A    between atoms: _76  and  _79
REMARK   33  A    between atoms: _79  and  _80
REMARK   34  A    between atoms: _82  and  _84
REMARK   35  A    between atoms: _84  and  _85
REMARK   36  A    between atoms: _84  and  _87
REMARK   37  A    between atoms: _87  and  _88
REMARK   38  A    between atoms: _88  and  _89
REMARK   39  A    between atoms: _92  and  _93
REMARK   40  A    between atoms: _99  and  _100
REMARK   41  A    between atoms: _105  and  _107
REMARK   42  A    between atoms: _107  and  _108
REMARK   43  A    between atoms: _107  and  _110
REMARK   44  A    between atoms: _110  and  _111
REMARK   45  A    between atoms: _114  and  _116
REMARK   46  A    between atoms: _116  and  _117
REMARK   47  A    between atoms: _116  and  _119
REMARK   48  A    between atoms: _119  and  _120
REMARK   49  A    between atoms: _123  and  _125
REMARK   50  A    between atoms: _125  and  _126
REMARK   51  A    between atoms: _125  and  _128
REMARK   52  A    between atoms: _128  and  _129
REMARK   53  A    between atoms: _131  and  _133
REMARK   54  A    between atoms: _133  and  _134
REMARK   55  A    between atoms: _136  and  _138
REMARK   56  A    between atoms: _138  and  _139
REMARK   57  A    between atoms: _138  and  _141
REMARK   58  A    between atoms: _141  and  _142
REMARK   59  A    between atoms: _147  and  _148
REMARK   60  A    between atoms: _150  and  _152
REMARK   61  A    between atoms: _152  and  _153
REMARK   62  A    between atoms: _152  and  _155
REMARK   63  A    between atoms: _155  and  _156
REMARK   64  A    between atoms: _159  and  _161
REMARK   65  A    between atoms: _161  and  _162
REMARK   66  A    between atoms: _161  and  _164
REMARK   67  A    between atoms: _164  and  _165
REMARK   68  A    between atoms: _168  and  _170
REMARK   69  A    between atoms: _170  and  _171
REMARK   70  A    between atoms: _173  and  _175
REMARK   71  A    between atoms: _175  and  _176
REMARK   72  A    between atoms: _175  and  _178
REMARK   73  A    between atoms: _178  and  _179
REMARK   74  A    between atoms: _179  and  _180
REMARK   75  A    between atoms: _185  and  _187
REMARK   76  A    between atoms: _187  and  _188
REMARK   77  A    between atoms: _187  and  _190
REMARK   78  A    between atoms: _190  and  _191
REMARK   79  A    between atoms: _194  and  _196
REMARK   80  A    between atoms: _196  and  _197
REMARK   81  A    between atoms: _196  and  _199
REMARK   82  A    between atoms: _202  and  _204
REMARK   83  A    between atoms: _204  and  _205
REMARK   84  A    between atoms: _204  and  _207
REMARK   85  A    between atoms: _210  and  _212
REMARK   86  A    between atoms: _212  and  _213
REMARK   87  A    between atoms: _216  and  _218
REMARK   88  A    between atoms: _218  and  _219
REMARK   89  A    between atoms: _218  and  _221
REMARK   90  A    between atoms: _221  and  _222
REMARK   91  A    between atoms: _222  and  _223
REMARK   92  A    between atoms: _223  and  _224
REMARK   93  A    between atoms: _233  and  _235
REMARK   94  A    between atoms: _235  and  _236
REMARK   95  A    between atoms: _235  and  _238
REMARK   96  A    between atoms: _238  and  _239
REMARK   97  A    between atoms: _239  and  _240
REMARK   98  A    between atoms: _243  and  _245
REMARK   99  A    between atoms: _245  and  _246
REMARK  100  A    between atoms: _245  and  _248
REMARK  101  A    between atoms: _248  and  _249
REMARK  102  A    between atoms: _252  and  _254
REMARK  103  A    between atoms: _254  and  _255
REMARK  104  A    between atoms: _254  and  _257
REMARK  105  A    between atoms: _257  and  _258
REMARK  106  A    between atoms: _263  and  _265
REMARK  107  A    between atoms: _265  and  _266
REMARK  108  A    between atoms: _265  and  _268
REMARK  109  A    between atoms: _268  and  _269
REMARK  110  A    between atoms: _269  and  _270
REMARK  111  A    between atoms: _270  and  _271
REMARK  112  A    between atoms: _281  and  _282
REMARK  113  A    between atoms: _287  and  _289
REMARK  114  A    between atoms: _289  and  _290
REMARK  115  A    between atoms: _289  and  _292
REMARK  116  A    between atoms: _292  and  _293
REMARK  117  A    between atoms: _298  and  _300
REMARK  118  A    between atoms: _300  and  _301
REMARK  119  A    between atoms: _300  and  _303
REMARK  120  A    between atoms: _303  and  _304
REMARK  121  A    between atoms: _308  and  _309
REMARK  122  A    between atoms: _314  and  _316
REMARK  123  A    between atoms: _316  and  _317
REMARK  124  A    between atoms: _316  and  _319
REMARK  125  A    between atoms: _319  and  _320
REMARK  126  A    between atoms: _322  and  _324
REMARK  127  A    between atoms: _324  and  _325
REMARK  128  A    between atoms: _324  and  _327
REMARK  129  A    between atoms: _327  and  _328
REMARK  130  A    between atoms: _331  and  _333
REMARK  131  A    between atoms: _333  and  _334
REMARK  132  A    between atoms: _333  and  _336
REMARK  133  A    between atoms: _336  and  _337
REMARK  134  A    between atoms: _337  and  _338
REMARK  135  A    between atoms: _338  and  _339
REMARK  136  A    between atoms: _348  and  _350
REMARK  137  A    between atoms: _350  and  _351
REMARK  138  A    between atoms: _350  and  _353
REMARK  139  A    between atoms: _353  and  _354
REMARK  140  A    between atoms: _360  and  _362
REMARK  141  A    between atoms: _362  and  _363
REMARK  142  A    between atoms: _362  and  _365
REMARK  143  A    between atoms: _365  and  _366
REMARK  144  A    between atoms: _368  and  _370
REMARK  145  A    between atoms: _370  and  _371
REMARK  146  A    between atoms: _374  and  _376
REMARK  147  A    between atoms: _376  and  _377
REMARK  148  A    between atoms: _376  and  _379
REMARK  149  A    between atoms: _379  and  _380
REMARK  150  A    between atoms: _385  and  _386
REMARK  151  A    between atoms: _388  and  _390
REMARK  152  A    between atoms: _390  and  _391
REMARK  153  A    between atoms: _390  and  _393
REMARK  154  A    between atoms: _393  and  _394
REMARK  155  A    between atoms: _394  and  _395
REMARK  156  A    between atoms: _397  and  _399
REMARK  157  A    between atoms: _399  and  _400
REMARK  158  A    between atoms: _399  and  _402
REMARK  159  A    between atoms: _402  and  _403
REMARK  160  A    between atoms: _408  and  _409
REMARK  161  A    between atoms: _411  and  _413
REMARK  162  A    between atoms: _413  and  _414
REMARK  163  A    between atoms: _413  and  _416
REMARK  164  A    between atoms: _416  and  _417
REMARK  165  A    between atoms: _420  and  _422
REMARK  166  A    between atoms: _422  and  _423
REMARK  167  A    between atoms: _422  and  _425
REMARK  168  A    between atoms: _425  and  _426
REMARK  169  A    between atoms: _426  and  _427
REMARK  170  A    between atoms: _429  and  _431
REMARK  171  A    between atoms: _431  and  _432
REMARK  172  A    between atoms: _431  and  _434
REMARK  173  A    between atoms: _434  and  _435
REMARK  174  A    between atoms: _439  and  _440
REMARK  175  A    between atoms: _445  and  _447
REMARK  176  A    between atoms: _447  and  _448
REMARK  177  A    between atoms: _447  and  _450
REMARK  178  A    between atoms: _450  and  _451
REMARK  179  A    between atoms: _455  and  _456
REMARK  180  A    between atoms: _461  and  _463
REMARK  181  A    between atoms: _463  and  _464
REMARK  182  A    between atoms: _463  and  _466
REMARK  183  A    between atoms: _466  and  _467
REMARK  184  A    between atoms: _470  and  _472
REMARK  185  A    between atoms: _472  and  _473
REMARK  186  A    between atoms: _472  and  _475
REMARK  187  A    between atoms: _475  and  _476
REMARK  188  A    between atoms: _479  and  _481
REMARK  189  A    between atoms: _481  and  _482
REMARK  190  A    between atoms: _481  and  _484
REMARK  191  A    between atoms: _484  and  _485
REMARK  192  A    between atoms: _487  and  _489
REMARK  193  A    between atoms: _489  and  _490
REMARK  194  A    between atoms: _492  and  _494
REMARK  195  A    between atoms: _494  and  _495
REMARK  196  A    between atoms: _494  and  _497
REMARK  197  A    between atoms: _497  and  _498
REMARK  198  A    between atoms: _503  and  _504
REMARK  199  A    between atoms: _506  and  _508
REMARK  200  A    between atoms: _508  and  _509
REMARK  201  A    between atoms: _508  and  _511
REMARK  202  A    between atoms: _511  and  _512
REMARK  203  A    between atoms: _515  and  _517
REMARK  204  A    between atoms: _517  and  _518
REMARK  205  A    between atoms: _517  and  _520
REMARK  206  A    between atoms: _520  and  _521
REMARK  207  A    between atoms: _524  and  _526
REMARK  208  A    between atoms: _526  and  _527
REMARK  209  A    between atoms: _529  and  _531
REMARK  210  A    between atoms: _531  and  _532
REMARK  211  A    between atoms: _531  and  _534
REMARK  212  A    between atoms: _534  and  _535
REMARK  213  A    between atoms: _535  and  _536
REMARK  214  A    between atoms: _541  and  _543
REMARK  215  A    between atoms: _543  and  _544
REMARK  216  A    between atoms: _543  and  _546
REMARK  217  A    between atoms: _546  and  _547
REMARK  218  A    between atoms: _550  and  _552
REMARK  219  A    between atoms: _552  and  _553
REMARK  220  A    between atoms: _552  and  _555
REMARK  221  A    between atoms: _558  and  _560
REMARK  222  A    between atoms: _560  and  _561
REMARK  223  A    between atoms: _560  and  _563
REMARK  224  A    between atoms: _566  and  _568
REMARK  225  A    between atoms: _568  and  _569
REMARK  226  A    between atoms: _572  and  _574
REMARK  227  A    between atoms: _574  and  _575
REMARK  228  A    between atoms: _574  and  _577
REMARK  229  A    between atoms: _577  and  _578
REMARK  230  A    between atoms: _578  and  _579
REMARK  231  A    between atoms: _579  and  _580
REMARK  232  A    between atoms: _589  and  _591
REMARK  233  A    between atoms: _591  and  _592
REMARK  234  A    between atoms: _591  and  _594
REMARK  235  A    between atoms: _594  and  _595
REMARK  236  A    between atoms: _600  and  _602
REMARK  237  A    between atoms: _602  and  _603
REMARK  238  A    between atoms: _602  and  _605
REMARK  239  A    between atoms: _605  and  _606
REMARK  240  A    between atoms: _610  and  _611
REMARK  241  A    between atoms: _616  and  _618
REMARK  242  A    between atoms: _618  and  _619
REMARK  243  A    between atoms: _618  and  _621
REMARK  244  A    between atoms: _621  and  _622
REMARK  245  A    between atoms: _624  and  _626
REMARK  246  A    between atoms: _626  and  _627
REMARK  247  A    between atoms: _626  and  _629
REMARK  248  A    between atoms: _629  and  _630
REMARK  249  A    between atoms: _633  and  _635
REMARK  250  A    between atoms: _635  and  _636
REMARK  251  A    between atoms: _635  and  _638
REMARK  252  A    between atoms: _638  and  _639
REMARK  253  A    between atoms: _639  and  _640
REMARK  254  A    between atoms: _640  and  _641
REMARK                            x       y       z     vdW  Elec       q    Type
REMARK                         _______ _______ _______ _____ _____    ______ ____
ROOT
ATOM      1  CA  MET A   1     -34.084 -15.057  20.897  0.00  0.00    +0.134 C 
ENDROOT
BRANCH   1   2
ATOM      2  N   MET A   1     -34.530 -13.682  20.767  0.00  0.00    -0.239 NA
ATOM      3  H   MET A   1     -34.425 -13.024  21.566  0.00  0.00    +0.142 HD
ENDBRANCH   1   2
BRANCH   1   4
ATOM      4  C   MET A   1     -35.275 -15.949  21.224  0.00  0.00    +0.224 C 
ATOM      5  O   MET A   1     -36.145 -15.582  22.018  0.00  0.00    -0.287 OA
ENDBRANCH   1   4
BRANCH   1   6
ATOM      6  CB  MET A   1     -33.011 -15.169  21.984  0.00  0.00    +0.037 C 
BRANCH   6   7
ATOM      7  CG  MET A   1     -31.712 -14.432  21.644  0.00  0.00    +0.059 C 
BRANCH   7   8
ATOM      8  SD  MET A   1     -30.897 -15.010  20.116  0.00  0.00    -0.139 S 
ATOM      9  CE  MET A   1     -31.354 -13.713  18.940  0.00  0.00    +0.069 C 
ENDBRANCH   7   8
ENDBRANCH   6   7
ENDBRANCH   1   6
TORSDOF 5
REMARK  Name = ../refined-set-2016/3b2q/3b2q_pocket.pdb
REMARK  254 active torsions:
REMARK  status: ('A' for Active; 'I' for Inactive)
REMARK    1  A    between atoms: _2  and  _3
REMARK    2  A    between atoms: _8  and  _10
REMARK    3  A    between atoms: _10  and  _11
REMARK    4  A    between atoms: _10  and  _13
REMARK    5  A    between atoms: _13  and  _14
REMARK    6  A    between atoms: _17  and  _19
REMARK    7  A    between atoms: _19  and  _20
REMARK    8  A    between atoms: _19  and  _22
REMARK    9  A    between atoms: _22  and  _23
REMARK   10  A    between atoms: _29  and  _31
REMARK   11  A    between atoms: _31  and  _32
REMARK   12  A    between atoms: _31  and  _34
REMARK   13  A    between atoms: _34  and  _35
REMARK   14  A    between atoms: _37  and  _39
REMARK   15  A    between atoms: _39  and  _40
REMARK   16  A    between atoms: _43  and  _45
REMARK   17  A    between atoms: _45  and  _46
REMARK   18  A    between atoms: _45  and  _48
REMARK   19  A    between atoms: _48  and  _49
REMARK   20  A    between atoms: _51  and  _53
REMARK   21  A    between atoms: _53  and  _54
REMARK   22  A    between atoms: _56  and  _58
REMARK   23  A    between atoms: _58  and  _59
REMARK   24  A    between atoms: _58  and  _61
REMARK   25  A    between atoms: _61  and  _62
REMARK   26  A    between atoms: _65  and  _67
REMARK   27  A    between atoms: _67  and  _68
REMARK   28  A    between atoms: _67  and  _70
REMARK   29  A    between atoms: _70  and  _71
REMARK   30  A    between atoms: _74  and  _76
REMARK   31  A    between atoms: _76  and  _77
REMARK   32  A    between atoms: _76  and  _79
REMARK   33  A    between atoms: _79  and  _80
REMARK   34  A    between atoms: _82  and  _84
REMARK   35  A    between atoms: _84  and  _85
REMARK   36  A    between atoms: _84  and  _87
REMARK   37  A    between atoms: _87  and  _88
REMARK   38  A    between atoms: _88  and  _89
REMARK   39  A    between atoms: _92  and  _93
REMARK   40  A    between atoms: _99  and  _100
REMARK   41  A    between atoms: _105  and  _107
REMARK   42  A    between atoms: _107  and  _108
REMARK   43  A    between atoms: _107  and  _110
REMARK   44  A    between atoms: _110  and  _111
REMARK   45  A    between atoms: _114  and  _116
REMARK   46  A    between atoms: _116  and  _117
REMARK   47  A    between atoms: _116  and  _119
REMARK   48  A    between atoms: _119  and  _120
REMARK   49  A    between atoms: _123  and  _125
REMARK   50  A    between atoms: _125  and  _126
REMARK   51  A    between atoms: _125  and  _128
REMARK   52  A    between atoms: _128  and  _129
REMARK   53  A    between atoms: _131  and  _133
REMARK   54  A    between atoms: _133  and  _134
REMARK   55  A    between atoms: _136  and  _138
REMARK   56  A    between atoms: _138  and  _139
REMARK   57  A    between atoms: _138  and  _141
REMARK   58  A    between atoms: _141  and  _142
REMARK   59  A    between atoms: _147  and  _148
REMARK   60  A    between atoms: _150  and  _152
REMARK   61  A    between atoms: _152  and  _153
REMARK   62  A    between atoms: _152  and  _155
REMARK   63  A    between atoms: _155  and  _156
REMARK   64  A    between atoms: _159  and  _161
REMARK   65  A    between atoms: _161  and  _162
REMARK   66  A    between atoms: _161  and  _164
REMARK   67  A    between atoms: _164  and  _165
REMARK   68  A    between atoms: _168  and  _170
REMARK   69  A    between atoms: _170  and  _171
REMARK   70  A    between atoms: _173  and  _175
REMARK   71  A    between atoms: _175  and  _176
REMARK   72  A    between atoms: _175  and  _178
REMARK   73  A    between atoms: _178  and  _179
REMARK   74  A    between atoms: _179  and  _180
REMARK   75  A    between atoms: _185  and  _187
REMARK   76  A    between atoms: _187  and  _188
REMARK   77  A    between atoms: _187  and  _190
REMARK   78  A    between atoms: _190  and  _191
REMARK   79  A    between atoms: _194  and  _196
REMARK   80  A    between atoms: _196  and  _197
REMARK   81  A    between atoms: _196  and  _199
REMARK   82  A    between atoms: _202  and  _204
REMARK   83  A    between atoms: _204  and  _205
REMARK   84  A    between atoms: _204  and  _207
REMARK   85  A    between atoms: _210  and  _212
REMARK   86  A    between atoms: _212  and  _213
REMARK   87  A    between atoms: _216  and  _218
REMARK   88  A    between atoms: _218  and  _219
REMARK   89  A    between atoms: _218  and  _221
REMARK   90  A    between atoms: _221  and  _222
REMARK   91  A    between atoms: _222  and  _223
REMARK   92  A    between atoms: _223  and  _224
REMARK   93  A    between atoms: _233  and  _235
REMARK   94  A    between atoms: _235  and  _236
REMARK   95  A    between atoms: _235  and  _238
REMARK   96  A    between atoms: _238  and  _239
REMARK   97  A    between atoms: _239  and  _240
REMARK   98  A    between atoms: _243  and  _245
REMARK   99  A    between atoms: _245  and  _246
REMARK  100  A    between atoms: _245  and  _248
REMARK  101  A    between atoms: _248  and  _249
REMARK  102  A    between atoms: _252  and  _254
REMARK  103  A    between atoms: _254  and  _255
REMARK  104  A    between atoms: _254  and  _257
REMARK  105  A    between atoms: _257  and  _258
REMARK  106  A    between atoms: _263  and  _265
REMARK  107  A    between atoms: _265  and  _266
REMARK  108  A    between atoms: _265  and  _268
REMARK  109  A    between atoms: _268  and  _269
REMARK  110  A    between atoms: _269  and  _270
REMARK  111  A    between atoms: _270  and  _271
REMARK  112  A    between atoms: _281  and  _282
REMARK  113  A    between atoms: _287  and  _289
REMARK  114  A    between atoms: _289  and  _290
REMARK  115  A    between atoms: _289  and  _292
REMARK  116  A    between atoms: _292  and  _293
REMARK  117  A    between atoms: _298  and  _300
REMARK  118  A    between atoms: _300  and  _301
REMARK  119  A    between atoms: _300  and  _303
REMARK  120  A    between atoms: _303  and  _304
REMARK  121  A    between atoms: _308  and  _309
REMARK  122  A    between atoms: _314  and  _316
REMARK  123  A    between atoms: _316  and  _317
REMARK  124  A    between atoms: _316  and  _319
REMARK  125  A    between atoms: _319  and  _320
REMARK  126  A    between atoms: _322  and  _324
REMARK  127  A    between atoms: _324  and  _325
REMARK  128  A    between atoms: _324  and  _327
REMARK  129  A    between atoms: _327  and  _328
REMARK  130  A    between atoms: _331  and  _333
REMARK  131  A    between atoms: _333  and  _334
REMARK  132  A    between atoms: _333  and  _336
REMARK  133  A    between atoms: _336  and  _337
REMARK  134  A    between atoms: _337  and  _338
REMARK  135  A    between atoms: _338  and  _339
REMARK  136  A    between atoms: _348  and  _350
REMARK  137  A    between atoms: _350  and  _351
REMARK  138  A    between atoms: _350  and  _353
REMARK  139  A    between atoms: _353  and  _354
REMARK  140  A    between atoms: _360  and  _362
REMARK  141  A    between atoms: _362  and  _363
REMARK  142  A    between atoms: _362  and  _365
REMARK  143  A    between atoms: _365  and  _366
REMARK  144  A    between atoms: _368  and  _370
REMARK  145  A    between atoms: _370  and  _371
REMARK  146  A    between atoms: _374  and  _376
REMARK  147  A    between atoms: _376  and  _377
REMARK  148  A    between atoms: _376  and  _379
REMARK  149  A    between atoms: _379  and  _380
REMARK  150  A    between atoms: _385  and  _386
REMARK  151  A    between atoms: _388  and  _390
REMARK  152  A    between atoms: _390  and  _391
REMARK  153  A    between atoms: _390  and  _393
REMARK  154  A    between atoms: _393  and  _394
REMARK  155  A    between atoms: _394  and  _395
REMARK  156  A    between atoms: _397  and  _399
REMARK  157  A    between atoms: _399  and  _400
REMARK  158  A    between atoms: _399  and  _402
REMARK  159  A    between atoms: _402  and  _403
REMARK  160  A    between atoms: _408  and  _409
REMARK  161  A    between atoms: _411  and  _413
REMARK  162  A    between atoms: _413  and  _414
REMARK  163  A    between atoms: _413  and  _416
REMARK  164  A    between atoms: _416  and  _417
REMARK  165  A    between atoms: _420  and  _422
REMARK  166  A    between atoms: _422  and  _423
REMARK  167  A    between atoms: _422  and  _425
REMARK  168  A    between atoms: _425  and  _426
REMARK  169  A    between atoms: _426  and  _427
REMARK  170  A    between atoms: _429  and  _431
REMARK  171  A    between atoms: _431  and  _432
REMARK  172  A    between atoms: _431  and  _434
REMARK  173  A    between atoms: _434  and  _435
REMARK  174  A    between atoms: _439  and  _440
REMARK  175  A    between atoms: _445  and  _447
REMARK  176  A    between atoms: _447  and  _448
REMARK  177  A    between atoms: _447  and  _450
REMARK  178  A    between atoms: _450  and  _451
REMARK  179  A    between atoms: _455  and  _456
REMARK  180  A    between atoms: _461  and  _463
REMARK  181  A    between atoms: _463  and  _464
REMARK  182  A    between atoms: _463  and  _466
REMARK  183  A    between atoms: _466  and  _467
REMARK  184  A    between atoms: _470  and  _472
REMARK  185  A    between atoms: _472  and  _473
REMARK  186  A    between atoms: _472  and  _475
REMARK  187  A    between atoms: _475  and  _476
REMARK  188  A    between atoms: _479  and  _481
REMARK  189  A    between atoms: _481  and  _482
REMARK  190  A    between atoms: _481  and  _484
REMARK  191  A    between atoms: _484  and  _485
REMARK  192  A    between atoms: _487  and  _489
REMARK  193  A    between atoms: _489  and  _490
REMARK  194  A    between atoms: _492  and  _494
REMARK  195  A    between atoms: _494  and  _495
REMARK  196  A    between atoms: _494  and  _497
REMARK  197  A    between atoms: _497  and  _498
REMARK  198  A    between atoms: _503  and  _504
REMARK  199  A    between atoms: _506  and  _508
REMARK  200  A    between atoms: _508  and  _509
REMARK  201  A    between atoms: _508  and  _511
REMARK  202  A    between atoms: _511  and  _512
REMARK  203  A    between atoms: _515  and  _517
REMARK  204  A    between atoms: _517  and  _518
REMARK  205  A    between atoms: _517  and  _520
REMARK  206  A    between atoms: _520  and  _521
REMARK  207  A    between atoms: _524  and  _526
REMARK  208  A    between atoms: _526  and  _527
REMARK  209  A    between atoms: _529  and  _531
REMARK  210  A    between atoms: _531  and  _532
REMARK  211  A    between atoms: _531  and  _534
REMARK  212  A    between atoms: _534  and  _535
REMARK  213  A    between atoms: _535  and  _536
REMARK  214  A    between atoms: _541  and  _543
REMARK  215  A    between atoms: _543  and  _544
REMARK  216  A    between atoms: _543  and  _546
REMARK  217  A    between atoms: _546  and  _547
REMARK  218  A    between atoms: _550  and  _552
REMARK  219  A    between atoms: _552  and  _553
REMARK  220  A    between atoms: _552  and  _555
REMARK  221  A    between atoms: _558  and  _560
REMARK  222  A    between atoms: _560  and  _561
REMARK  223  A    between atoms: _560  and  _563
REMARK  224  A    between atoms: _566  and  _568
REMARK  225  A    between atoms: _568  and  _569
REMARK  226  A    between atoms: _572  and  _574
REMARK  227  A    between atoms: _574  and  _575
REMARK  228  A    between atoms: _574  and  _577
REMARK  229  A    between atoms: _577  and  _578
REMARK  230  A    between atoms: _578  and  _579
REMARK  231  A    between atoms: _579  and  _580
REMARK  232  A    between atoms: _589  and  _591
REMARK  233  A    between atoms: _591  and  _592
REMARK  234  A    between atoms: _591  and  _594
REMARK  235  A    between atoms: _594  and  _595
REMARK  236  A    between atoms: _600  and  _602
REMARK  237  A    between atoms: _602  and  _603
REMARK  238  A    between atoms: _602  and  _605
REMARK  239  A    between atoms: _605  and  _606
REMARK  240  A    between atoms: _610  and  _611
REMARK  241  A    between atoms: _616  and  _618
REMARK  242  A    between atoms: _618  and  _619
REMARK  243  A    between atoms: _618  and  _621
REMARK  244  A    between atoms: _621  and  _622
REMARK  245  A    between atoms: _624  and  _626
REMARK  246  A    between atoms: _626  and  _627
REMARK  247  A    between atoms: _626  and  _629
REMARK  248  A    between atoms: _629  and  _630
REMARK  249  A    between atoms: _633  and  _635
REMARK  250  A    between atoms: _635  and  _636
REMARK  251  A    between atoms: _635  and  _638
REMARK  252  A    between atoms: _638  and  _639
REMARK  253  A    between atoms: _639  and  _640
REMARK  254  A    between atoms: _640  and  _641
REMARK                            x       y       z     vdW  Elec       q    Type
REMARK                         _______ _______ _______ _____ _____    ______ ____
ROOT
ATOM      1  CA  ASP A   1     -34.396 -24.200  21.069  0.00  0.00    +0.144 C 
ENDROOT
BRANCH   1   2
ATOM      2  N   ASP A   1     -35.338 -23.808  22.117  0.00  0.00    -0.239 NA
ATOM      3  H   ASP A   1     -35.112 -24.037  23.106  0.00  0.00    +0.142 HD
ENDBRANCH   1   2
BRANCH   1   4
ATOM      4  C   ASP A   1     -34.766 -25.454  20.280  0.00  0.00    +0.225 C 
ATOM      5  O   ASP A   1     -34.579 -25.498  19.064  0.00  0.00    -0.287 OA
ENDBRANCH   1   4
BRANCH   1   6
ATOM      6  CB  ASP A   1     -32.999 -24.383  21.667  0.00  0.00    +0.139 C 
BRANCH   6   7
ATOM      7  CG  ASP A   1     -32.246 -23.074  21.796  0.00  0.00    +0.367 C 
ATOM      8  OD2 ASP A   1     -32.847 -22.089  22.275  0.00  0.00    -0.246 OA
ATOM      9  OD1 ASP A   1     -31.053 -23.032  21.422  0.00  0.00    -0.246 OA
ENDBRANCH   6   7
ENDBRANCH   1   6
TORSDOF 4
REMARK  Name = ../refined-set-2016/3b2q/3b2q_pocket.pdb
REMARK  254 active torsions:
REMARK  status: ('A' for Active; 'I' for Inactive)
REMARK    1  A    between atoms: _2  and  _3
REMARK    2  A    between atoms: _8  and  _10
REMARK    3  A    between atoms: _10  and  _11
REMARK    4  A    between atoms: _10  and  _13
REMARK    5  A    between atoms: _13  and  _14
REMARK    6  A    between atoms: _17  and  _19
REMARK    7  A    between atoms: _19  and  _20
REMARK    8  A    between atoms: _19  and  _22
REMARK    9  A    between atoms: _22  and  _23
REMARK   10  A    between atoms: _29  and  _31
REMARK   11  A    between atoms: _31  and  _32
REMARK   12  A    between atoms: _31  and  _34
REMARK   13  A    between atoms: _34  and  _35
REMARK   14  A    between atoms: _37  and  _39
REMARK   15  A    between atoms: _39  and  _40
REMARK   16  A    between atoms: _43  and  _45
REMARK   17  A    between atoms: _45  and  _46
REMARK   18  A    between atoms: _45  and  _48
REMARK   19  A    between atoms: _48  and  _49
REMARK   20  A    between atoms: _51  and  _53
REMARK   21  A    between atoms: _53  and  _54
REMARK   22  A    between atoms: _56  and  _58
REMARK   23  A    between atoms: _58  and  _59
REMARK   24  A    between atoms: _58  and  _61
REMARK   25  A    between atoms: _61  and  _62
REMARK   26  A    between atoms: _65  and  _67
REMARK   27  A    between atoms: _67  and  _68
REMARK   28  A    between atoms: _67  and  _70
REMARK   29  A    between atoms: _70  and  _71
REMARK   30  A    between atoms: _74  and  _76
REMARK   31  A    between atoms: _76  and  _77
REMARK   32  A    between atoms: _76  and  _79
REMARK   33  A    between atoms: _79  and  _80
REMARK   34  A    between atoms: _82  and  _84
REMARK   35  A    between atoms: _84  and  _85
REMARK   36  A    between atoms: _84  and  _87
REMARK   37  A    between atoms: _87  and  _88
REMARK   38  A    between atoms: _88  and  _89
REMARK   39  A    between atoms: _92  and  _93
REMARK   40  A    between atoms: _99  and  _100
REMARK   41  A    between atoms: _105  and  _107
REMARK   42  A    between atoms: _107  and  _108
REMARK   43  A    between atoms: _107  and  _110
REMARK   44  A    between atoms: _110  and  _111
REMARK   45  A    between atoms: _114  and  _116
REMARK   46  A    between atoms: _116  and  _117
REMARK   47  A    between atoms: _116  and  _119
REMARK   48  A    between atoms: _119  and  _120
REMARK   49  A    between atoms: _123  and  _125
REMARK   50  A    between atoms: _125  and  _126
REMARK   51  A    between atoms: _125  and  _128
REMARK   52  A    between atoms: _128  and  _129
REMARK   53  A    between atoms: _131  and  _133
REMARK   54  A    between atoms: _133  and  _134
REMARK   55  A    between atoms: _136  and  _138
REMARK   56  A    between atoms: _138  and  _139
REMARK   57  A    between atoms: _138  and  _141
REMARK   58  A    between atoms: _141  and  _142
REMARK   59  A    between atoms: _147  and  _148
REMARK   60  A    between atoms: _150  and  _152
REMARK   61  A    between atoms: _152  and  _153
REMARK   62  A    between atoms: _152  and  _155
REMARK   63  A    between atoms: _155  and  _156
REMARK   64  A    between atoms: _159  and  _161
REMARK   65  A    between atoms: _161  and  _162
REMARK   66  A    between atoms: _161  and  _164
REMARK   67  A    between atoms: _164  and  _165
REMARK   68  A    between atoms: _168  and  _170
REMARK   69  A    between atoms: _170  and  _171
REMARK   70  A    between atoms: _173  and  _175
REMARK   71  A    between atoms: _175  and  _176
REMARK   72  A    between atoms: _175  and  _178
REMARK   73  A    between atoms: _178  and  _179
REMARK   74  A    between atoms: _179  and  _180
REMARK   75  A    between atoms: _185  and  _187
REMARK   76  A    between atoms: _187  and  _188
REMARK   77  A    between atoms: _187  and  _190
REMARK   78  A    between atoms: _190  and  _191
REMARK   79  A    between atoms: _194  and  _196
REMARK   80  A    between atoms: _196  and  _197
REMARK   81  A    between atoms: _196  and  _199
REMARK   82  A    between atoms: _202  and  _204
REMARK   83  A    between atoms: _204  and  _205
REMARK   84  A    between atoms: _204  and  _207
REMARK   85  A    between atoms: _210  and  _212
REMARK   86  A    between atoms: _212  and  _213
REMARK   87  A    between atoms: _216  and  _218
REMARK   88  A    between atoms: _218  and  _219
REMARK   89  A    between atoms: _218  and  _221
REMARK   90  A    between atoms: _221  and  _222
REMARK   91  A    between atoms: _222  and  _223
REMARK   92  A    between atoms: _223  and  _224
REMARK   93  A    between atoms: _233  and  _235
REMARK   94  A    between atoms: _235  and  _236
REMARK   95  A    between atoms: _235  and  _238
REMARK   96  A    between atoms: _238  and  _239
REMARK   97  A    between atoms: _239  and  _240
REMARK   98  A    between atoms: _243  and  _245
REMARK   99  A    between atoms: _245  and  _246
REMARK  100  A    between atoms: _245  and  _248
REMARK  101  A    between atoms: _248  and  _249
REMARK  102  A    between atoms: _252  and  _254
REMARK  103  A    between atoms: _254  and  _255
REMARK  104  A    between atoms: _254  and  _257
REMARK  105  A    between atoms: _257  and  _258
REMARK  106  A    between atoms: _263  and  _265
REMARK  107  A    between atoms: _265  and  _266
REMARK  108  A    between atoms: _265  and  _268
REMARK  109  A    between atoms: _268  and  _269
REMARK  110  A    between atoms: _269  and  _270
REMARK  111  A    between atoms: _270  and  _271
REMARK  112  A    between atoms: _281  and  _282
REMARK  113  A    between atoms: _287  and  _289
REMARK  114  A    between atoms: _289  and  _290
REMARK  115  A    between atoms: _289  and  _292
REMARK  116  A    between atoms: _292  and  _293
REMARK  117  A    between atoms: _298  and  _300
REMARK  118  A    between atoms: _300  and  _301
REMARK  119  A    between atoms: _300  and  _303
REMARK  120  A    between atoms: _303  and  _304
REMARK  121  A    between atoms: _308  and  _309
REMARK  122  A    between atoms: _314  and  _316
REMARK  123  A    between atoms: _316  and  _317
REMARK  124  A    between atoms: _316  and  _319
REMARK  125  A    between atoms: _319  and  _320
REMARK  126  A    between atoms: _322  and  _324
REMARK  127  A    between atoms: _324  and  _325
REMARK  128  A    between atoms: _324  and  _327
REMARK  129  A    between atoms: _327  and  _328
REMARK  130  A    between atoms: _331  and  _333
REMARK  131  A    between atoms: _333  and  _334
REMARK  132  A    between atoms: _333  and  _336
REMARK  133  A    between atoms: _336  and  _337
REMARK  134  A    between atoms: _337  and  _338
REMARK  135  A    between atoms: _338  and  _339
REMARK  136  A    between atoms: _348  and  _350
REMARK  137  A    between atoms: _350  and  _351
REMARK  138  A    between atoms: _350  and  _353
REMARK  139  A    between atoms: _353  and  _354
REMARK  140  A    between atoms: _360  and  _362
REMARK  141  A    between atoms: _362  and  _363
REMARK  142  A    between atoms: _362  and  _365
REMARK  143  A    between atoms: _365  and  _366
REMARK  144  A    between atoms: _368  and  _370
REMARK  145  A    between atoms: _370  and  _371
REMARK  146  A    between atoms: _374  and  _376
REMARK  147  A    between atoms: _376  and  _377
REMARK  148  A    between atoms: _376  and  _379
REMARK  149  A    between atoms: _379  and  _380
REMARK  150  A    between atoms: _385  and  _386
REMARK  151  A    between atoms: _388  and  _390
REMARK  152  A    between atoms: _390  and  _391
REMARK  153  A    between atoms: _390  and  _393
REMARK  154  A    between atoms: _393  and  _394
REMARK  155  A    between atoms: _394  and  _395
REMARK  156  A    between atoms: _397  and  _399
REMARK  157  A    between atoms: _399  and  _400
REMARK  158  A    between atoms: _399  and  _402
REMARK  159  A    between atoms: _402  and  _403
REMARK  160  A    between atoms: _408  and  _409
REMARK  161  A    between atoms: _411  and  _413
REMARK  162  A    between atoms: _413  and  _414
REMARK  163  A    between atoms: _413  and  _416
REMARK  164  A    between atoms: _416  and  _417
REMARK  165  A    between atoms: _420  and  _422
REMARK  166  A    between atoms: _422  and  _423
REMARK  167  A    between atoms: _422  and  _425
REMARK  168  A    between atoms: _425  and  _426
REMARK  169  A    between atoms: _426  and  _427
REMARK  170  A    between atoms: _429  and  _431
REMARK  171  A    between atoms: _431  and  _432
REMARK  172  A    between atoms: _431  and  _434
REMARK  173  A    between atoms: _434  and  _435
REMARK  174  A    between atoms: _439  and  _440
REMARK  175  A    between atoms: _445  and  _447
REMARK  176  A    between atoms: _447  and  _448
REMARK  177  A    between atoms: _447  and  _450
REMARK  178  A    between atoms: _450  and  _451
REMARK  179  A    between atoms: _455  and  _456
REMARK  180  A    between atoms: _461  and  _463
REMARK  181  A    between atoms: _463  and  _464
REMARK  182  A    between atoms: _463  and  _466
REMARK  183  A    between atoms: _466  and  _467
REMARK  184  A    between atoms: _470  and  _472
REMARK  185  A    between atoms: _472  and  _473
REMARK  186  A    between atoms: _472  and  _475
REMARK  187  A    between atoms: _475  and  _476
REMARK  188  A    between atoms: _479  and  _481
REMARK  189  A    between atoms: _481  and  _482
REMARK  190  A    between atoms: _481  and  _484
REMARK  191  A    between atoms: _484  and  _485
REMARK  192  A    between atoms: _487  and  _489
REMARK  193  A    between atoms: _489  and  _490
REMARK  194  A    between atoms: _492  and  _494
REMARK  195  A    between atoms: _494  and  _495
REMARK  196  A    between atoms: _494  and  _497
REMARK  197  A    between atoms: _497  and  _498
REMARK  198  A    between atoms: _503  and  _504
REMARK  199  A    between atoms: _506  and  _508
REMARK  200  A    between atoms: _508  and  _509
REMARK  201  A    between atoms: _508  and  _511
REMARK  202  A    between atoms: _511  and  _512
REMARK  203  A    between atoms: _515  and  _517
REMARK  204  A    between atoms: _517  and  _518
REMARK  205  A    between atoms: _517  and  _520
REMARK  206  A    between atoms: _520  and  _521
REMARK  207  A    between atoms: _524  and  _526
REMARK  208  A    between atoms: _526  and  _527
REMARK  209  A    between atoms: _529  and  _531
REMARK  210  A    between atoms: _531  and  _532
REMARK  211  A    between atoms: _531  and  _534
REMARK  212  A    between atoms: _534  and  _535
REMARK  213  A    between atoms: _535  and  _536
REMARK  214  A    between atoms: _541  and  _543
REMARK  215  A    between atoms: _543  and  _544
REMARK  216  A    between atoms: _543  and  _546
REMARK  217  A    between atoms: _546  and  _547
REMARK  218  A    between atoms: _550  and  _552
REMARK  219  A    between atoms: _552  and  _553
REMARK  220  A    between atoms: _552  and  _555
REMARK  221  A    between atoms: _558  and  _560
REMARK  222  A    between atoms: _560  and  _561
REMARK  223  A    between atoms: _560  and  _563
REMARK  224  A    between atoms: _566  and  _568
REMARK  225  A    between atoms: _568  and  _569
REMARK  226  A    between atoms: _572  and  _574
REMARK  227  A    between atoms: _574  and  _575
REMARK  228  A    between atoms: _574  and  _577
REMARK  229  A    between atoms: _577  and  _578
REMARK  230  A    between atoms: _578  and  _579
REMARK  231  A    between atoms: _579  and  _580
REMARK  232  A    between atoms: _589  and  _591
REMARK  233  A    between atoms: _591  and  _592
REMARK  234  A    between atoms: _591  and  _594
REMARK  235  A    between atoms: _594  and  _595
REMARK  236  A    between atoms: _600  and  _602
REMARK  237  A    between atoms: _602  and  _603
REMARK  238  A    between atoms: _602  and  _605
REMARK  239  A    between atoms: _605  and  _606
REMARK  240  A    between atoms: _610  and  _611
REMARK  241  A    between atoms: _616  and  _618
REMARK  242  A    between atoms: _618  and  _619
REMARK  243  A    between atoms: _618  and  _621
REMARK  244  A    between atoms: _621  and  _622
REMARK  245  A    between atoms: _624  and  _626
REMARK  246  A    between atoms: _626  and  _627
REMARK  247  A    between atoms: _626  and  _629
REMARK  248  A    between atoms: _629  and  _630
REMARK  249  A    between atoms: _633  and  _635
REMARK  250  A    between atoms: _635  and  _636
REMARK  251  A    between atoms: _635  and  _638
REMARK  252  A    between atoms: _638  and  _639
REMARK  253  A    between atoms: _639  and  _640
REMARK  254  A    between atoms: _640  and  _641
REMARK                            x       y       z     vdW  Elec       q    Type
REMARK                         _______ _______ _______ _____ _____    ______ ____
ROOT
ATOM      1  C   LEU A   5     -26.685 -12.141  14.117  0.00  0.00    +0.241 C 
ATOM      2  N   SER A   6     -25.507 -12.540  14.603  0.00  0.00    -0.295 N 
ATOM      3  H   SER A   6     -25.311 -13.557  14.695  0.00  0.00    +0.150 HD
ATOM      4  O   LEU A   5     -26.975 -10.954  13.961  0.00  0.00    -0.273 OA
ENDROOT
BRANCH   2   5
ATOM      5  CA  SER A   6     -24.488 -11.572  15.008  0.00  0.00    +0.178 C 
BRANCH   5   6
ATOM      6  C   SER A   6     -23.959 -10.700  13.871  0.00  0.00    +0.243 C 
ATOM      7  O   SER A   6     -23.384  -9.643  14.117  0.00  0.00    -0.273 OA
ATOM      8  N   GLY A   7     -24.159 -11.133  12.629  0.00  0.00    -0.295 N 
ATOM      9  H   GLY A   7     -24.647 -12.037  12.469  0.00  0.00    +0.150 HD
BRANCH   8  10
ATOM     10  CA  GLY A   7     -23.699 -10.349  11.496  0.00  0.00    +0.176 C 
BRANCH  10  11
ATOM     11  C   GLY A   7     -24.362  -8.985  11.445  0.00  0.00    +0.243 C 
ATOM     12  N   TYR A   8     -25.563  -8.900  12.013  0.00  0.00    -0.297 N 
ATOM     13  H   TYR A   8     -25.971  -9.753  12.445  0.00  0.00    +0.150 HD
ATOM     14  O   GLY A   7     -23.803  -8.027  10.904  0.00  0.00    -0.273 OA
BRANCH  12  15
ATOM     15  CA  TYR A   8     -26.335  -7.653  12.055  0.00  0.00    +0.153 C 
BRANCH  15  16
ATOM     16  C   TYR A   8     -25.857  -6.717  13.160  0.00  0.00    +0.241 C 
ATOM     17  N   ILE A   9     -25.050  -7.242  14.074  0.00  0.00    -0.297 N 
ATOM     18  H   ILE A   9     -24.753  -8.235  13.985  0.00  0.00    +0.150 HD
ATOM     19  O   TYR A   8     -26.217  -5.535  13.188  0.00  0.00    -0.273 OA
BRANCH  17  20
ATOM     20  CA  ILE A   9     -24.574  -6.448  15.201  0.00  0.00    +0.149 C 
BRANCH  20  21
ATOM     21  C   ILE A   9     -23.137  -5.967  15.037  0.00  0.00    +0.241 C 
ATOM     22  O   ILE A   9     -22.201  -6.595  15.530  0.00  0.00    -0.273 OA
ATOM     23  N   THR A  10     -22.968  -4.838  14.357  0.00  0.00    -0.296 N 
ATOM     24  H   THR A  10     -23.802  -4.339  13.988  0.00  0.00    +0.150 HD
BRANCH  23  25
ATOM     25  CA  THR A  10     -21.647  -4.283  14.116  0.00  0.00    +0.164 C 
BRANCH  25  26
ATOM     26  C   THR A  10     -21.529  -2.835  14.577  0.00  0.00    +0.229 C 
ATOM     27  O   THR A  10     -20.433  -2.271  14.615  0.00  0.00    -0.286 OA
ENDBRANCH  25  26
BRANCH  25  28
ATOM     28  CB  THR A  10     -21.288  -4.368  12.615  0.00  0.00    +0.136 C 
ATOM     29  CG2 THR A  10     -21.406  -5.812  12.127  0.00  0.00    +0.034 C 
BRANCH  28  30
ATOM     30  OG1 THR A  10     -22.180  -3.543  11.853  0.00  0.00    -0.382 OA
ATOM     31  HG1 THR A  10     -23.110  -3.855  11.985  0.00  0.00    +0.210 HD
ENDBRANCH  28  30
ENDBRANCH  25  28
ENDBRANCH  23  25
ENDBRANCH  20  21
BRANCH  20  32
ATOM     32  CB  ILE A   9     -24.702  -7.262  16.506  0.00  0.00    +0.027 C 
ATOM     33  CG2 ILE A   9     -24.346  -6.398  17.707  0.00  0.00    +0.002 C 
BRANCH  32  34
ATOM     34  CG1 ILE A   9     -26.135  -7.778  16.640  0.00  0.00    +0.002 C 
ATOM     35  CD1 ILE A   9     -26.388  -8.593  17.888  0.00  0.00    +0.000 C 
ENDBRANCH  32  34
ENDBRANCH  20  32
ENDBRANCH  17  20
ENDBRANCH  15  16
BRANCH  15  36
ATOM     36  CB  TYR A   8     -27.813  -7.961  12.314  0.00  0.00    +0.055 C 
BRANCH  36  37
ATOM     37  CG  TYR A   8     -28.759  -7.430  11.265  0.00  0.00    -0.020 A 
ATOM     38  CD2 TYR A   8     -28.904  -6.063  11.050  0.00  0.00    -0.001 A 
ATOM     39  CE2 TYR A   8     -29.796  -5.576  10.085  0.00  0.00    +0.036 A 
ATOM     40  CZ  TYR A   8     -30.544  -6.474   9.333  0.00  0.00    +0.134 A 
ATOM     41  CE1 TYR A   8     -30.409  -7.832   9.537  0.00  0.00    +0.036 A 
ATOM     42  CD1 TYR A   8     -29.521  -8.302  10.496  0.00  0.00    -0.001 A 
BRANCH  40  43
ATOM     43  OH  TYR A   8     -31.427  -6.031   8.373  0.00  0.00    -0.506 OA
ATOM     44  HH  TYR A   8     -31.865  -6.809   7.945  0.00  0.00    +0.292 HD
ENDBRANCH  40  43
ENDBRANCH  36  37
ENDBRANCH  15  36
ENDBRANCH  12  15
ENDBRANCH  10  11
ENDBRANCH   8  10
ENDBRANCH   5   6
BRANCH   5  45
ATOM     45  CB  SER A   6     -23.321 -12.279  15.715  0.00  0.00    +0.166 C 
BRANCH  45  46
ATOM     46  OG  SER A   6     -22.601 -13.135  14.847  0.00  0.00    -0.380 OA
ATOM     47  H   SER A   6     -23.210 -13.830  14.492  0.00  0.00    +0.211 HD
ENDBRANCH  45  46
ENDBRANCH   5  45
ENDBRANCH   2   5
BRANCH   1  48
ATOM     48  CA  LEU A   5     -27.694 -13.234  13.747  0.00  0.00    +0.149 C 
BRANCH  48  50
ATOM     49  C   ASP A   4     -26.855 -15.513  13.763  0.00  0.00    +0.241 C 
ATOM     50  N   LEU A   5     -27.386 -14.489  14.418  0.00  0.00    -0.297 N 
ATOM     51  H   LEU A   5     -27.587 -14.585  15.434  0.00  0.00    +0.150 HD
ATOM     52  O   ASP A   4     -26.603 -15.481  12.558  0.00  0.00    -0.273 OA
BRANCH  49  53
ATOM     53  CA  ASP A   4     -26.587 -16.769  14.588  0.00  0.00    +0.160 C 
BRANCH  53  56
ATOM     54  C   PRO A   3     -28.790 -17.685  15.085  0.00  0.00    +0.241 C 
ATOM     55  O   PRO A   3     -28.965 -16.906  16.027  0.00  0.00    -0.273 OA
ATOM     56  N   ASP A   4     -27.682 -17.704  14.348  0.00  0.00    -0.297 N 
ATOM     57  H   ASP A   4     -27.594 -18.402  13.582  0.00  0.00    +0.150 HD
BRANCH  54  64
ATOM     58  C   ILE A   2     -30.358 -19.868  16.822  0.00  0.00    +0.244 C 
ATOM     59  O   ILE A   2     -29.243 -20.389  16.853  0.00  0.00    -0.273 OA
ATOM     60  N   PRO A   3     -30.733 -19.045  15.832  0.00  0.00    -0.272 N 
ATOM     61  CD  PRO A   3     -32.035 -18.363  15.715  0.00  0.00    +0.094 C 
ATOM     62  CG  PRO A   3     -31.792 -17.370  14.586  0.00  0.00    +0.024 C 
ATOM     63  CB  PRO A   3     -30.843 -18.122  13.697  0.00  0.00    +0.031 C 
ATOM     64  CA  PRO A   3     -29.864 -18.695  14.706  0.00  0.00    +0.152 C 
BRANCH  58  65
ATOM     65  CA  ILE A   2     -31.382 -20.137  17.923  0.00  0.00    +0.149 C 
BRANCH  65  67
ATOM     66  C   PRO A   1     -32.859 -21.868  17.088  0.00  0.00    +0.239 C 
ATOM     67  N   ILE A   2     -31.840 -21.522  17.867  0.00  0.00    -0.297 N 
ATOM     68  H   ILE A   2     -31.364 -22.245  18.443  0.00  0.00    +0.150 HD
ATOM     69  O   PRO A   1     -33.470 -21.056  16.391  0.00  0.00    -0.274 OA
BRANCH  66  71
ATOM     70  N   PRO A   1     -34.707 -23.476  16.850  0.00  0.00    -0.210 NA
ATOM     71  CA  PRO A   1     -33.266 -23.339  17.097  0.00  0.00    +0.149 C 
ATOM     72  CB  PRO A   1     -32.643 -24.122  15.943  0.00  0.00    +0.028 C 
ATOM     73  CG  PRO A   1     -33.671 -25.176  15.662  0.00  0.00    +0.021 C 
ATOM     74  CD  PRO A   1     -34.960 -24.390  15.722  0.00  0.00    +0.089 C 
ENDBRANCH  66  71
ENDBRANCH  65  67
BRANCH  65  75
ATOM     75  CB  ILE A   2     -30.756 -19.802  19.296  0.00  0.00    +0.027 C 
ATOM     76  CG2 ILE A   2     -30.244 -18.367  19.301  0.00  0.00    +0.002 C 
BRANCH  75  77
ATOM     77  CG1 ILE A   2     -31.799 -19.988  20.400  0.00  0.00    +0.002 C 
ATOM     78  CD1 ILE A   2     -31.306 -19.619  21.789  0.00  0.00    +0.000 C 
ENDBRANCH  75  77
ENDBRANCH  65  75
ENDBRANCH  58  65
ENDBRANCH  54  64
ENDBRANCH  53  56
BRANCH  53  79
ATOM     79  CB  ASP A   4     -25.248 -17.395  14.181  0.00  0.00    +0.143 C 
BRANCH  79  80
ATOM     80  CG  ASP A   4     -24.077 -16.421  14.295  0.00  0.00    +0.367 C 
ATOM     81  OD2 ASP A   4     -24.225 -15.340  14.905  0.00  0.00    -0.246 OA
ATOM     82  OD1 ASP A   4     -22.992 -16.749  13.776  0.00  0.00    -0.246 OA
ENDBRANCH  79  80
ENDBRANCH  53  79
ENDBRANCH  49  53
ENDBRANCH  48  50
BRANCH  48  83
ATOM     83  CB  LEU A   5     -29.103 -12.772  14.129  0.00  0.00    +0.029 C 
BRANCH  83  84
ATOM     84  CG  LEU A   5     -30.278 -13.715  13.844  0.00  0.00    +0.002 C 
ATOM     85  CD2 LEU A   5     -31.562 -13.058  14.334  0.00  0.00    +0.000 C 
ATOM     86  CD1 LEU A   5     -30.377 -14.028  12.354  0.00  0.00    +0.000 C 
ENDBRANCH  83  84
ENDBRANCH  48  83
ENDBRANCH   1  48
TORSDOF 33
REMARK  Name = ../refined-set-2016/3b2q/3b2q_pocket.pdb
REMARK  254 active torsions:
REMARK  status: ('A' for Active; 'I' for Inactive)
REMARK    1  A    between atoms: _2  and  _3
REMARK    2  A    between atoms: _8  and  _10
REMARK    3  A    between atoms: _10  and  _11
REMARK    4  A    between atoms: _10  and  _13
REMARK    5  A    between atoms: _13  and  _14
REMARK    6  A    between atoms: _17  and  _19
REMARK    7  A    between atoms: _19  and  _20
REMARK    8  A    between atoms: _19  and  _22
REMARK    9  A    between atoms: _22  and  _23
REMARK   10  A    between atoms: _29  and  _31
REMARK   11  A    between atoms: _31  and  _32
REMARK   12  A    between atoms: _31  and  _34
REMARK   13  A    between atoms: _34  and  _35
REMARK   14  A    between atoms: _37  and  _39
REMARK   15  A    between atoms: _39  and  _40
REMARK   16  A    between atoms: _43  and  _45
REMARK   17  A    between atoms: _45  and  _46
REMARK   18  A    between atoms: _45  and  _48
REMARK   19  A    between atoms: _48  and  _49
REMARK   20  A    between atoms: _51  and  _53
REMARK   21  A    between atoms: _53  and  _54
REMARK   22  A    between atoms: _56  and  _58
REMARK   23  A    between atoms: _58  and  _59
REMARK   24  A    between atoms: _58  and  _61
REMARK   25  A    between atoms: _61  and  _62
REMARK   26  A    between atoms: _65  and  _67
REMARK   27  A    between atoms: _67  and  _68
REMARK   28  A    between atoms: _67  and  _70
REMARK   29  A    between atoms: _70  and  _71
REMARK   30  A    between atoms: _74  and  _76
REMARK   31  A    between atoms: _76  and  _77
REMARK   32  A    between atoms: _76  and  _79
REMARK   33  A    between atoms: _79  and  _80
REMARK   34  A    between atoms: _82  and  _84
REMARK   35  A    between atoms: _84  and  _85
REMARK   36  A    between atoms: _84  and  _87
REMARK   37  A    between atoms: _87  and  _88
REMARK   38  A    between atoms: _88  and  _89
REMARK   39  A    between atoms: _92  and  _93
REMARK   40  A    between atoms: _99  and  _100
REMARK   41  A    between atoms: _105  and  _107
REMARK   42  A    between atoms: _107  and  _108
REMARK   43  A    between atoms: _107  and  _110
REMARK   44  A    between atoms: _110  and  _111
REMARK   45  A    between atoms: _114  and  _116
REMARK   46  A    between atoms: _116  and  _117
REMARK   47  A    between atoms: _116  and  _119
REMARK   48  A    between atoms: _119  and  _120
REMARK   49  A    between atoms: _123  and  _125
REMARK   50  A    between atoms: _125  and  _126
REMARK   51  A    between atoms: _125  and  _128
REMARK   52  A    between atoms: _128  and  _129
REMARK   53  A    between atoms: _131  and  _133
REMARK   54  A    between atoms: _133  and  _134
REMARK   55  A    between atoms: _136  and  _138
REMARK   56  A    between atoms: _138  and  _139
REMARK   57  A    between atoms: _138  and  _141
REMARK   58  A    between atoms: _141  and  _142
REMARK   59  A    between atoms: _147  and  _148
REMARK   60  A    between atoms: _150  and  _152
REMARK   61  A    between atoms: _152  and  _153
REMARK   62  A    between atoms: _152  and  _155
REMARK   63  A    between atoms: _155  and  _156
REMARK   64  A    between atoms: _159  and  _161
REMARK   65  A    between atoms: _161  and  _162
REMARK   66  A    between atoms: _161  and  _164
REMARK   67  A    between atoms: _164  and  _165
REMARK   68  A    between atoms: _168  and  _170
REMARK   69  A    between atoms: _170  and  _171
REMARK   70  A    between atoms: _173  and  _175
REMARK   71  A    between atoms: _175  and  _176
REMARK   72  A    between atoms: _175  and  _178
REMARK   73  A    between atoms: _178  and  _179
REMARK   74  A    between atoms: _179  and  _180
REMARK   75  A    between atoms: _185  and  _187
REMARK   76  A    between atoms: _187  and  _188
REMARK   77  A    between atoms: _187  and  _190
REMARK   78  A    between atoms: _190  and  _191
REMARK   79  A    between atoms: _194  and  _196
REMARK   80  A    between atoms: _196  and  _197
REMARK   81  A    between atoms: _196  and  _199
REMARK   82  A    between atoms: _202  and  _204
REMARK   83  A    between atoms: _204  and  _205
REMARK   84  A    between atoms: _204  and  _207
REMARK   85  A    between atoms: _210  and  _212
REMARK   86  A    between atoms: _212  and  _213
REMARK   87  A    between atoms: _216  and  _218
REMARK   88  A    between atoms: _218  and  _219
REMARK   89  A    between atoms: _218  and  _221
REMARK   90  A    between atoms: _221  and  _222
REMARK   91  A    between atoms: _222  and  _223
REMARK   92  A    between atoms: _223  and  _224
REMARK   93  A    between atoms: _233  and  _235
REMARK   94  A    between atoms: _235  and  _236
REMARK   95  A    between atoms: _235  and  _238
REMARK   96  A    between atoms: _238  and  _239
REMARK   97  A    between atoms: _239  and  _240
REMARK   98  A    between atoms: _243  and  _245
REMARK   99  A    between atoms: _245  and  _246
REMARK  100  A    between atoms: _245  and  _248
REMARK  101  A    between atoms: _248  and  _249
REMARK  102  A    between atoms: _252  and  _254
REMARK  103  A    between atoms: _254  and  _255
REMARK  104  A    between atoms: _254  and  _257
REMARK  105  A    between atoms: _257  and  _258
REMARK  106  A    between atoms: _263  and  _265
REMARK  107  A    between atoms: _265  and  _266
REMARK  108  A    between atoms: _265  and  _268
REMARK  109  A    between atoms: _268  and  _269
REMARK  110  A    between atoms: _269  and  _270
REMARK  111  A    between atoms: _270  and  _271
REMARK  112  A    between atoms: _281  and  _282
REMARK  113  A    between atoms: _287  and  _289
REMARK  114  A    between atoms: _289  and  _290
REMARK  115  A    between atoms: _289  and  _292
REMARK  116  A    between atoms: _292  and  _293
REMARK  117  A    between atoms: _298  and  _300
REMARK  118  A    between atoms: _300  and  _301
REMARK  119  A    between atoms: _300  and  _303
REMARK  120  A    between atoms: _303  and  _304
REMARK  121  A    between atoms: _308  and  _309
REMARK  122  A    between atoms: _314  and  _316
REMARK  123  A    between atoms: _316  and  _317
REMARK  124  A    between atoms: _316  and  _319
REMARK  125  A    between atoms: _319  and  _320
REMARK  126  A    between atoms: _322  and  _324
REMARK  127  A    between atoms: _324  and  _325
REMARK  128  A    between atoms: _324  and  _327
REMARK  129  A    between atoms: _327  and  _328
REMARK  130  A    between atoms: _331  and  _333
REMARK  131  A    between atoms: _333  and  _334
REMARK  132  A    between atoms: _333  and  _336
REMARK  133  A    between atoms: _336  and  _337
REMARK  134  A    between atoms: _337  and  _338
REMARK  135  A    between atoms: _338  and  _339
REMARK  136  A    between atoms: _348  and  _350
REMARK  137  A    between atoms: _350  and  _351
REMARK  138  A    between atoms: _350  and  _353
REMARK  139  A    between atoms: _353  and  _354
REMARK  140  A    between atoms: _360  and  _362
REMARK  141  A    between atoms: _362  and  _363
REMARK  142  A    between atoms: _362  and  _365
REMARK  143  A    between atoms: _365  and  _366
REMARK  144  A    between atoms: _368  and  _370
REMARK  145  A    between atoms: _370  and  _371
REMARK  146  A    between atoms: _374  and  _376
REMARK  147  A    between atoms: _376  and  _377
REMARK  148  A    between atoms: _376  and  _379
REMARK  149  A    between atoms: _379  and  _380
REMARK  150  A    between atoms: _385  and  _386
REMARK  151  A    between atoms: _388  and  _390
REMARK  152  A    between atoms: _390  and  _391
REMARK  153  A    between atoms: _390  and  _393
REMARK  154  A    between atoms: _393  and  _394
REMARK  155  A    between atoms: _394  and  _395
REMARK  156  A    between atoms: _397  and  _399
REMARK  157  A    between atoms: _399  and  _400
REMARK  158  A    between atoms: _399  and  _402
REMARK  159  A    between atoms: _402  and  _403
REMARK  160  A    between atoms: _408  and  _409
REMARK  161  A    between atoms: _411  and  _413
REMARK  162  A    between atoms: _413  and  _414
REMARK  163  A    between atoms: _413  and  _416
REMARK  164  A    between atoms: _416  and  _417
REMARK  165  A    between atoms: _420  and  _422
REMARK  166  A    between atoms: _422  and  _423
REMARK  167  A    between atoms: _422  and  _425
REMARK  168  A    between atoms: _425  and  _426
REMARK  169  A    between atoms: _426  and  _427
REMARK  170  A    between atoms: _429  and  _431
REMARK  171  A    between atoms: _431  and  _432
REMARK  172  A    between atoms: _431  and  _434
REMARK  173  A    between atoms: _434  and  _435
REMARK  174  A    between atoms: _439  and  _440
REMARK  175  A    between atoms: _445  and  _447
REMARK  176  A    between atoms: _447  and  _448
REMARK  177  A    between atoms: _447  and  _450
REMARK  178  A    between atoms: _450  and  _451
REMARK  179  A    between atoms: _455  and  _456
REMARK  180  A    between atoms: _461  and  _463
REMARK  181  A    between atoms: _463  and  _464
REMARK  182  A    between atoms: _463  and  _466
REMARK  183  A    between atoms: _466  and  _467
REMARK  184  A    between atoms: _470  and  _472
REMARK  185  A    between atoms: _472  and  _473
REMARK  186  A    between atoms: _472  and  _475
REMARK  187  A    between atoms: _475  and  _476
REMARK  188  A    between atoms: _479  and  _481
REMARK  189  A    between atoms: _481  and  _482
REMARK  190  A    between atoms: _481  and  _484
REMARK  191  A    between atoms: _484  and  _485
REMARK  192  A    between atoms: _487  and  _489
REMARK  193  A    between atoms: _489  and  _490
REMARK  194  A    between atoms: _492  and  _494
REMARK  195  A    between atoms: _494  and  _495
REMARK  196  A    between atoms: _494  and  _497
REMARK  197  A    between atoms: _497  and  _498
REMARK  198  A    between atoms: _503  and  _504
REMARK  199  A    between atoms: _506  and  _508
REMARK  200  A    between atoms: _508  and  _509
REMARK  201  A    between atoms: _508  and  _511
REMARK  202  A    between atoms: _511  and  _512
REMARK  203  A    between atoms: _515  and  _517
REMARK  204  A    between atoms: _517  and  _518
REMARK  205  A    between atoms: _517  and  _520
REMARK  206  A    between atoms: _520  and  _521
REMARK  207  A    between atoms: _524  and  _526
REMARK  208  A    between atoms: _526  and  _527
REMARK  209  A    between atoms: _529  and  _531
REMARK  210  A    between atoms: _531  and  _532
REMARK  211  A    between atoms: _531  and  _534
REMARK  212  A    between atoms: _534  and  _535
REMARK  213  A    between atoms: _535  and  _536
REMARK  214  A    between atoms: _541  and  _543
REMARK  215  A    between atoms: _543  and  _544
REMARK  216  A    between atoms: _543  and  _546
REMARK  217  A    between atoms: _546  and  _547
REMARK  218  A    between atoms: _550  and  _552
REMARK  219  A    between atoms: _552  and  _553
REMARK  220  A    between atoms: _552  and  _555
REMARK  221  A    between atoms: _558  and  _560
REMARK  222  A    between atoms: _560  and  _561
REMARK  223  A    between atoms: _560  and  _563
REMARK  224  A    between atoms: _566  and  _568
REMARK  225  A    between atoms: _568  and  _569
REMARK  226  A    between atoms: _572  and  _574
REMARK  227  A    between atoms: _574  and  _575
REMARK  228  A    between atoms: _574  and  _577
REMARK  229  A    between atoms: _577  and  _578
REMARK  230  A    between atoms: _578  and  _579
REMARK  231  A    between atoms: _579  and  _580
REMARK  232  A    between atoms: _589  and  _591
REMARK  233  A    between atoms: _591  and  _592
REMARK  234  A    between atoms: _591  and  _594
REMARK  235  A    between atoms: _594  and  _595
REMARK  236  A    between atoms: _600  and  _602
REMARK  237  A    between atoms: _602  and  _603
REMARK  238  A    between atoms: _602  and  _605
REMARK  239  A    between atoms: _605  and  _606
REMARK  240  A    between atoms: _610  and  _611
REMARK  241  A    between atoms: _616  and  _618
REMARK  242  A    between atoms: _618  and  _619
REMARK  243  A    between atoms: _618  and  _621
REMARK  244  A    between atoms: _621  and  _622
REMARK  245  A    between atoms: _624  and  _626
REMARK  246  A    between atoms: _626  and  _627
REMARK  247  A    between atoms: _626  and  _629
REMARK  248  A    between atoms: _629  and  _630
REMARK  249  A    between atoms: _633  and  _635
REMARK  250  A    between atoms: _635  and  _636
REMARK  251  A    between atoms: _635  and  _638
REMARK  252  A    between atoms: _638  and  _639
REMARK  253  A    between atoms: _639  and  _640
REMARK  254  A    between atoms: _640  and  _641
REMARK                            x       y       z     vdW  Elec       q    Type
REMARK                         _______ _______ _______ _____ _____    ______ ____
ROOT
ATOM      1  C   VAL A   4     -32.029  -4.653  25.931  0.00  0.00    +0.241 C 
ATOM      2  O   VAL A   4     -32.075  -3.857  26.867  0.00  0.00    -0.273 OA
ATOM      3  N   VAL A   5     -33.046  -5.437  25.586  0.00  0.00    -0.297 N 
ATOM      4  H   VAL A   5     -32.952  -6.041  24.745  0.00  0.00    +0.150 HD
ENDROOT
BRANCH   3   5
ATOM      5  CA  VAL A   5     -34.289  -5.478  26.349  0.00  0.00    +0.149 C 
BRANCH   5   6
ATOM      6  C   VAL A   5     -33.998  -6.572  27.373  0.00  0.00    +0.241 C 
ATOM      7  N   ALA A   6     -34.105  -6.253  28.658  0.00  0.00    -0.297 N 
ATOM      8  H   ALA A   6     -34.417  -5.298  28.927  0.00  0.00    +0.150 HD
ATOM      9  O   VAL A   5     -33.668  -7.697  26.997  0.00  0.00    -0.273 OA
BRANCH   7  10
ATOM     10  CA  ALA A   6     -33.789  -7.229  29.698  0.00  0.00    +0.149 C 
ATOM     11  CB  ALA A   6     -32.733  -6.652  30.629  0.00  0.00    +0.031 C 
BRANCH  10  12
ATOM     12  C   ALA A   6     -34.972  -7.726  30.520  0.00  0.00    +0.241 C 
ATOM     13  O   ALA A   6     -35.824  -6.944  30.948  0.00  0.00    -0.273 OA
ATOM     14  N   ARG A   7     -34.999  -9.034  30.758  0.00  0.00    -0.298 N 
ATOM     15  H   ARG A   7     -34.242  -9.636  30.375  0.00  0.00    +0.150 HD
BRANCH  14  16
ATOM     16  CA  ARG A   7     -36.066  -9.645  31.545  0.00  0.00    +0.137 C 
BRANCH  16  17
ATOM     17  C   ARG A   7     -36.127  -9.077  32.964  0.00  0.00    +0.227 C 
ATOM     18  O   ARG A   7     -37.206  -8.888  33.517  0.00  0.00    -0.286 OA
ENDBRANCH  16  17
BRANCH  16  19
ATOM     19  CB  ARG A   7     -35.860 -11.157  31.626  0.00  0.00    +0.031 C 
BRANCH  19  20
ATOM     20  CG  ARG A   7     -35.950 -11.872  30.296  0.00  0.00    +0.045 C 
BRANCH  20  21
ATOM     21  CD  ARG A   7     -35.874 -13.385  30.472  0.00  0.00    +0.174 C 
BRANCH  21  22
ATOM     22  NE  ARG A   7     -36.119 -14.062  29.203  0.00  0.00    -0.265 N 
ATOM     23  HE  ARG A   7     -35.325 -14.566  28.758  0.00  0.00    +0.259 HD
ATOM     24  CZ  ARG A   7     -37.294 -14.075  28.579  0.00  0.00    +0.342 C 
ATOM     25  NH2 ARG A   7     -38.340 -13.454  29.108  0.00  0.00    -0.292 N 
ATOM     26 HH21 ARG A   7     -38.244 -12.954  30.015  0.00  0.00    +0.255 HD
ATOM     27 HH22 ARG A   7     -39.256 -13.467  28.616  0.00  0.00    +0.255 HD
ATOM     28  NH1 ARG A   7     -37.421 -14.700  27.415  0.00  0.00    -0.292 N 
ATOM     29 HH11 ARG A   7     -36.602 -15.180  26.990  0.00  0.00    +0.255 HD
ATOM     30 HH12 ARG A   7     -38.340 -14.710  26.928  0.00  0.00    +0.255 HD
ENDBRANCH  21  22
ENDBRANCH  20  21
ENDBRANCH  19  20
ENDBRANCH  16  19
ENDBRANCH  14  16
ENDBRANCH  10  12
ENDBRANCH   7  10
ENDBRANCH   5   6
BRANCH   5  31
ATOM     31  CB  VAL A   5     -35.482  -5.905  25.465  0.00  0.00    +0.027 C 
ATOM     32  CG2 VAL A   5     -36.757  -5.957  26.293  0.00  0.00    +0.002 C 
ATOM     33  CG1 VAL A   5     -35.644  -4.935  24.316  0.00  0.00    +0.002 C 
ENDBRANCH   5  31
ENDBRANCH   3   5
BRANCH   1  34
ATOM     34  CA  VAL A   4     -30.777  -4.781  25.075  0.00  0.00    +0.149 C 
BRANCH  34  36
ATOM     35  C   ILE A   3     -30.745  -3.350  23.122  0.00  0.00    +0.241 C 
ATOM     36  N   VAL A   4     -30.367  -3.571  24.375  0.00  0.00    -0.297 N 
ATOM     37  H   VAL A   4     -29.771  -2.872  24.863  0.00  0.00    +0.150 HD
ATOM     38  O   ILE A   3     -31.481  -4.124  22.509  0.00  0.00    -0.273 OA
BRANCH  35  39
ATOM     39  CA  ILE A   3     -30.229  -2.068  22.457  0.00  0.00    +0.149 C 
BRANCH  39  42
ATOM     40  C   GLN A   2     -28.066  -2.374  21.341  0.00  0.00    +0.241 C 
ATOM     41  O   GLN A   2     -27.423  -1.876  22.260  0.00  0.00    -0.273 OA
ATOM     42  N   ILE A   3     -29.389  -2.495  21.347  0.00  0.00    -0.297 N 
ATOM     43  H   ILE A   3     -29.849  -2.917  20.515  0.00  0.00    +0.150 HD
BRANCH  40  44
ATOM     44  CA  GLN A   2     -27.371  -2.896  20.095  0.00  0.00    +0.149 C 
BRANCH  44  46
ATOM     45  C   GLY A   1     -25.323  -2.556  18.844  0.00  0.00    +0.240 C 
ATOM     46  N   GLN A   2     -26.026  -2.360  19.951  0.00  0.00    -0.297 N 
ATOM     47  H   GLN A   2     -25.608  -1.813  20.731  0.00  0.00    +0.150 HD
ATOM     48  O   GLY A   1     -25.738  -3.229  17.908  0.00  0.00    -0.274 OA
BRANCH  45  49
ATOM     49  CA  GLY A   1     -23.950  -1.916  18.792  0.00  0.00    +0.169 C 
BRANCH  49  50
ATOM     50  N   GLY A   1     -23.380  -1.866  17.457  0.00  0.00    -0.236 NA
ATOM     51  H   GLY A   1     -23.035  -2.746  17.024  0.00  0.00    +0.142 HD
ENDBRANCH  49  50
ENDBRANCH  45  49
ENDBRANCH  44  46
BRANCH  44  52
ATOM     52  CB  GLN A   2     -27.352  -4.425  20.125  0.00  0.00    +0.039 C 
BRANCH  52  53
ATOM     53  CG  GLN A   2     -26.733  -5.037  21.361  0.00  0.00    +0.087 C 
BRANCH  53  54
ATOM     54  CD  GLN A   2     -25.242  -4.795  21.452  0.00  0.00    +0.219 C 
ATOM     55  NE2 GLN A   2     -24.791  -4.368  22.616  0.00  0.00    -0.329 N 
ATOM     56 HE21 GLN A   2     -25.453  -4.200  23.400  0.00  0.00    +0.145 HD
ATOM     57 HE22 GLN A   2     -23.773  -4.200  22.749  0.00  0.00    +0.145 HD
ATOM     58  OE1 GLN A   2     -24.500  -5.010  20.491  0.00  0.00    -0.275 OA
ENDBRANCH  53  54
ENDBRANCH  52  53
ENDBRANCH  44  52
ENDBRANCH  40  44
ENDBRANCH  39  42
BRANCH  39  59
ATOM     59  CB  ILE A   3     -31.437  -1.239  21.949  0.00  0.00    +0.027 C 
ATOM     60  CG2 ILE A   3     -32.292  -0.787  23.122  0.00  0.00    +0.002 C 
BRANCH  59  61
ATOM     61  CG1 ILE A   3     -30.948  -0.036  21.136  0.00  0.00    +0.002 C 
ATOM     62  CD1 ILE A   3     -30.024   0.892  21.893  0.00  0.00    +0.000 C 
ENDBRANCH  59  61
ENDBRANCH  39  59
ENDBRANCH  35  39
ENDBRANCH  34  36
BRANCH  34  63
ATOM     63  CB  VAL A   4     -29.636  -5.310  25.978  0.00  0.00    +0.027 C 
ATOM     64  CG2 VAL A   4     -30.050  -6.619  26.643  0.00  0.00    +0.002 C 
ATOM     65  CG1 VAL A   4     -28.373  -5.501  25.155  0.00  0.00    +0.002 C 
ENDBRANCH  34  63
ENDBRANCH   1  34
TORSDOF 25
REMARK  Name = ../refined-set-2016/3b2q/3b2q_pocket.pdb
REMARK  254 active torsions:
REMARK  status: ('A' for Active; 'I' for Inactive)
REMARK    1  A    between atoms: _2  and  _3
REMARK    2  A    between atoms: _8  and  _10
REMARK    3  A    between atoms: _10  and  _11
REMARK    4  A    between atoms: _10  and  _13
REMARK    5  A    between atoms: _13  and  _14
REMARK    6  A    between atoms: _17  and  _19
REMARK    7  A    between atoms: _19  and  _20
REMARK    8  A    between atoms: _19  and  _22
REMARK    9  A    between atoms: _22  and  _23
REMARK   10  A    between atoms: _29  and  _31
REMARK   11  A    between atoms: _31  and  _32
REMARK   12  A    between atoms: _31  and  _34
REMARK   13  A    between atoms: _34  and  _35
REMARK   14  A    between atoms: _37  and  _39
REMARK   15  A    between atoms: _39  and  _40
REMARK   16  A    between atoms: _43  and  _45
REMARK   17  A    between atoms: _45  and  _46
REMARK   18  A    between atoms: _45  and  _48
REMARK   19  A    between atoms: _48  and  _49
REMARK   20  A    between atoms: _51  and  _53
REMARK   21  A    between atoms: _53  and  _54
REMARK   22  A    between atoms: _56  and  _58
REMARK   23  A    between atoms: _58  and  _59
REMARK   24  A    between atoms: _58  and  _61
REMARK   25  A    between atoms: _61  and  _62
REMARK   26  A    between atoms: _65  and  _67
REMARK   27  A    between atoms: _67  and  _68
REMARK   28  A    between atoms: _67  and  _70
REMARK   29  A    between atoms: _70  and  _71
REMARK   30  A    between atoms: _74  and  _76
REMARK   31  A    between atoms: _76  and  _77
REMARK   32  A    between atoms: _76  and  _79
REMARK   33  A    between atoms: _79  and  _80
REMARK   34  A    between atoms: _82  and  _84
REMARK   35  A    between atoms: _84  and  _85
REMARK   36  A    between atoms: _84  and  _87
REMARK   37  A    between atoms: _87  and  _88
REMARK   38  A    between atoms: _88  and  _89
REMARK   39  A    between atoms: _92  and  _93
REMARK   40  A    between atoms: _99  and  _100
REMARK   41  A    between atoms: _105  and  _107
REMARK   42  A    between atoms: _107  and  _108
REMARK   43  A    between atoms: _107  and  _110
REMARK   44  A    between atoms: _110  and  _111
REMARK   45  A    between atoms: _114  and  _116
REMARK   46  A    between atoms: _116  and  _117
REMARK   47  A    between atoms: _116  and  _119
REMARK   48  A    between atoms: _119  and  _120
REMARK   49  A    between atoms: _123  and  _125
REMARK   50  A    between atoms: _125  and  _126
REMARK   51  A    between atoms: _125  and  _128
REMARK   52  A    between atoms: _128  and  _129
REMARK   53  A    between atoms: _131  and  _133
REMARK   54  A    between atoms: _133  and  _134
REMARK   55  A    between atoms: _136  and  _138
REMARK   56  A    between atoms: _138  and  _139
REMARK   57  A    between atoms: _138  and  _141
REMARK   58  A    between atoms: _141  and  _142
REMARK   59  A    between atoms: _147  and  _148
REMARK   60  A    between atoms: _150  and  _152
REMARK   61  A    between atoms: _152  and  _153
REMARK   62  A    between atoms: _152  and  _155
REMARK   63  A    between atoms: _155  and  _156
REMARK   64  A    between atoms: _159  and  _161
REMARK   65  A    between atoms: _161  and  _162
REMARK   66  A    between atoms: _161  and  _164
REMARK   67  A    between atoms: _164  and  _165
REMARK   68  A    between atoms: _168  and  _170
REMARK   69  A    between atoms: _170  and  _171
REMARK   70  A    between atoms: _173  and  _175
REMARK   71  A    between atoms: _175  and  _176
REMARK   72  A    between atoms: _175  and  _178
REMARK   73  A    between atoms: _178  and  _179
REMARK   74  A    between atoms: _179  and  _180
REMARK   75  A    between atoms: _185  and  _187
REMARK   76  A    between atoms: _187  and  _188
REMARK   77  A    between atoms: _187  and  _190
REMARK   78  A    between atoms: _190  and  _191
REMARK   79  A    between atoms: _194  and  _196
REMARK   80  A    between atoms: _196  and  _197
REMARK   81  A    between atoms: _196  and  _199
REMARK   82  A    between atoms: _202  and  _204
REMARK   83  A    between atoms: _204  and  _205
REMARK   84  A    between atoms: _204  and  _207
REMARK   85  A    between atoms: _210  and  _212
REMARK   86  A    between atoms: _212  and  _213
REMARK   87  A    between atoms: _216  and  _218
REMARK   88  A    between atoms: _218  and  _219
REMARK   89  A    between atoms: _218  and  _221
REMARK   90  A    between atoms: _221  and  _222
REMARK   91  A    between atoms: _222  and  _223
REMARK   92  A    between atoms: _223  and  _224
REMARK   93  A    between atoms: _233  and  _235
REMARK   94  A    between atoms: _235  and  _236
REMARK   95  A    between atoms: _235  and  _238
REMARK   96  A    between atoms: _238  and  _239
REMARK   97  A    between atoms: _239  and  _240
REMARK   98  A    between atoms: _243  and  _245
REMARK   99  A    between atoms: _245  and  _246
REMARK  100  A    between atoms: _245  and  _248
REMARK  101  A    between atoms: _248  and  _249
REMARK  102  A    between atoms: _252  and  _254
REMARK  103  A    between atoms: _254  and  _255
REMARK  104  A    between atoms: _254  and  _257
REMARK  105  A    between atoms: _257  and  _258
REMARK  106  A    between atoms: _263  and  _265
REMARK  107  A    between atoms: _265  and  _266
REMARK  108  A    between atoms: _265  and  _268
REMARK  109  A    between atoms: _268  and  _269
REMARK  110  A    between atoms: _269  and  _270
REMARK  111  A    between atoms: _270  and  _271
REMARK  112  A    between atoms: _281  and  _282
REMARK  113  A    between atoms: _287  and  _289
REMARK  114  A    between atoms: _289  and  _290
REMARK  115  A    between atoms: _289  and  _292
REMARK  116  A    between atoms: _292  and  _293
REMARK  117  A    between atoms: _298  and  _300
REMARK  118  A    between atoms: _300  and  _301
REMARK  119  A    between atoms: _300  and  _303
REMARK  120  A    between atoms: _303  and  _304
REMARK  121  A    between atoms: _308  and  _309
REMARK  122  A    between atoms: _314  and  _316
REMARK  123  A    between atoms: _316  and  _317
REMARK  124  A    between atoms: _316  and  _319
REMARK  125  A    between atoms: _319  and  _320
REMARK  126  A    between atoms: _322  and  _324
REMARK  127  A    between atoms: _324  and  _325
REMARK  128  A    between atoms: _324  and  _327
REMARK  129  A    between atoms: _327  and  _328
REMARK  130  A    between atoms: _331  and  _333
REMARK  131  A    between atoms: _333  and  _334
REMARK  132  A    between atoms: _333  and  _336
REMARK  133  A    between atoms: _336  and  _337
REMARK  134  A    between atoms: _337  and  _338
REMARK  135  A    between atoms: _338  and  _339
REMARK  136  A    between atoms: _348  and  _350
REMARK  137  A    between atoms: _350  and  _351
REMARK  138  A    between atoms: _350  and  _353
REMARK  139  A    between atoms: _353  and  _354
REMARK  140  A    between atoms: _360  and  _362
REMARK  141  A    between atoms: _362  and  _363
REMARK  142  A    between atoms: _362  and  _365
REMARK  143  A    between atoms: _365  and  _366
REMARK  144  A    between atoms: _368  and  _370
REMARK  145  A    between atoms: _370  and  _371
REMARK  146  A    between atoms: _374  and  _376
REMARK  147  A    between atoms: _376  and  _377
REMARK  148  A    between atoms: _376  and  _379
REMARK  149  A    between atoms: _379  and  _380
REMARK  150  A    between atoms: _385  and  _386
REMARK  151  A    between atoms: _388  and  _390
REMARK  152  A    between atoms: _390  and  _391
REMARK  153  A    between atoms: _390  and  _393
REMARK  154  A    between atoms: _393  and  _394
REMARK  155  A    between atoms: _394  and  _395
REMARK  156  A    between atoms: _397  and  _399
REMARK  157  A    between atoms: _399  and  _400
REMARK  158  A    between atoms: _399  and  _402
REMARK  159  A    between atoms: _402  and  _403
REMARK  160  A    between atoms: _408  and  _409
REMARK  161  A    between atoms: _411  and  _413
REMARK  162  A    between atoms: _413  and  _414
REMARK  163  A    between atoms: _413  and  _416
REMARK  164  A    between atoms: _416  and  _417
REMARK  165  A    between atoms: _420  and  _422
REMARK  166  A    between atoms: _422  and  _423
REMARK  167  A    between atoms: _422  and  _425
REMARK  168  A    between atoms: _425  and  _426
REMARK  169  A    between atoms: _426  and  _427
REMARK  170  A    between atoms: _429  and  _431
REMARK  171  A    between atoms: _431  and  _432
REMARK  172  A    between atoms: _431  and  _434
REMARK  173  A    between atoms: _434  and  _435
REMARK  174  A    between atoms: _439  and  _440
REMARK  175  A    between atoms: _445  and  _447
REMARK  176  A    between atoms: _447  and  _448
REMARK  177  A    between atoms: _447  and  _450
REMARK  178  A    between atoms: _450  and  _451
REMARK  179  A    between atoms: _455  and  _456
REMARK  180  A    between atoms: _461  and  _463
REMARK  181  A    between atoms: _463  and  _464
REMARK  182  A    between atoms: _463  and  _466
REMARK  183  A    between atoms: _466  and  _467
REMARK  184  A    between atoms: _470  and  _472
REMARK  185  A    between atoms: _472  and  _473
REMARK  186  A    between atoms: _472  and  _475
REMARK  187  A    between atoms: _475  and  _476
REMARK  188  A    between atoms: _479  and  _481
REMARK  189  A    between atoms: _481  and  _482
REMARK  190  A    between atoms: _481  and  _484
REMARK  191  A    between atoms: _484  and  _485
REMARK  192  A    between atoms: _487  and  _489
REMARK  193  A    between atoms: _489  and  _490
REMARK  194  A    between atoms: _492  and  _494
REMARK  195  A    between atoms: _494  and  _495
REMARK  196  A    between atoms: _494  and  _497
REMARK  197  A    between atoms: _497  and  _498
REMARK  198  A    between atoms: _503  and  _504
REMARK  199  A    between atoms: _506  and  _508
REMARK  200  A    between atoms: _508  and  _509
REMARK  201  A    between atoms: _508  and  _511
REMARK  202  A    between atoms: _511  and  _512
REMARK  203  A    between atoms: _515  and  _517
REMARK  204  A    between atoms: _517  and  _518
REMARK  205  A    between atoms: _517  and  _520
REMARK  206  A    between atoms: _520  and  _521
REMARK  207  A    between atoms: _524  and  _526
REMARK  208  A    between atoms: _526  and  _527
REMARK  209  A    between atoms: _529  and  _531
REMARK  210  A    between atoms: _531  and  _532
REMARK  211  A    between atoms: _531  and  _534
REMARK  212  A    between atoms: _534  and  _535
REMARK  213  A    between atoms: _535  and  _536
REMARK  214  A    between atoms: _541  and  _543
REMARK  215  A    between atoms: _543  and  _544
REMARK  216  A    between atoms: _543  and  _546
REMARK  217  A    between atoms: _546  and  _547
REMARK  218  A    between atoms: _550  and  _552
REMARK  219  A    between atoms: _552  and  _553
REMARK  220  A    between atoms: _552  and  _555
REMARK  221  A    between atoms: _558  and  _560
REMARK  222  A    between atoms: _560  and  _561
REMARK  223  A    between atoms: _560  and  _563
REMARK  224  A    between atoms: _566  and  _568
REMARK  225  A    between atoms: _568  and  _569
REMARK  226  A    between atoms: _572  and  _574
REMARK  227  A    between atoms: _574  and  _575
REMARK  228  A    between atoms: _574  and  _577
REMARK  229  A    between atoms: _577  and  _578
REMARK  230  A    between atoms: _578  and  _579
REMARK  231  A    between atoms: _579  and  _580
REMARK  232  A    between atoms: _589  and  _591
REMARK  233  A    between atoms: _591  and  _592
REMARK  234  A    between atoms: _591  and  _594
REMARK  235  A    between atoms: _594  and  _595
REMARK  236  A    between atoms: _600  and  _602
REMARK  237  A    between atoms: _602  and  _603
REMARK  238  A    between atoms: _602  and  _605
REMARK  239  A    between atoms: _605  and  _606
REMARK  240  A    between atoms: _610  and  _611
REMARK  241  A    between atoms: _616  and  _618
REMARK  242  A    between atoms: _618  and  _619
REMARK  243  A    between atoms: _618  and  _621
REMARK  244  A    between atoms: _621  and  _622
REMARK  245  A    between atoms: _624  and  _626
REMARK  246  A    between atoms: _626  and  _627
REMARK  247  A    between atoms: _626  and  _629
REMARK  248  A    between atoms: _629  and  _630
REMARK  249  A    between atoms: _633  and  _635
REMARK  250  A    between atoms: _635  and  _636
REMARK  251  A    between atoms: _635  and  _638
REMARK  252  A    between atoms: _638  and  _639
REMARK  253  A    between atoms: _639  and  _640
REMARK  254  A    between atoms: _640  and  _641
REMARK                            x       y       z     vdW  Elec       q    Type
REMARK                         _______ _______ _______ _____ _____    ______ ____
ROOT
ATOM      1  CB  ASN A   1     -30.273  -3.726  30.681  0.00  0.00    +0.110 C 
ENDROOT
BRANCH   1   2
ATOM      2  CG  ASN A   1     -29.102  -3.729  31.666  0.00  0.00    +0.221 C 
ATOM      3  ND2 ASN A   1     -28.740  -4.910  32.144  0.00  0.00    -0.329 N 
ATOM      4 HD21 ASN A   1     -27.945  -4.980  32.811  0.00  0.00    +0.145 HD
ATOM      5 HD22 ASN A   1     -29.250  -5.768  31.852  0.00  0.00    +0.145 HD
ATOM      6  OD1 ASN A   1     -28.529  -2.681  31.981  0.00  0.00    -0.275 OA
ENDBRANCH   1   2
BRANCH   1   7
ATOM      7  CA  ASN A   1     -30.702  -2.307  30.279  0.00  0.00    +0.142 C 
BRANCH   7   8
ATOM      8  N   ASN A   1     -31.857  -2.340  29.388  0.00  0.00    -0.239 NA
ATOM      9  H   ASN A   1     -31.940  -3.103  28.686  0.00  0.00    +0.142 HD
ENDBRANCH   7   8
BRANCH   7  10
ATOM     10  C   ASN A   1     -29.584  -1.617  29.503  0.00  0.00    +0.225 C 
ATOM     11  O   ASN A   1     -29.079  -2.147  28.508  0.00  0.00    -0.287 OA
ENDBRANCH   7  10
ENDBRANCH   1   7
TORSDOF 4
REMARK  Name = ../refined-set-2016/3b2q/3b2q_pocket.pdb
REMARK  254 active torsions:
REMARK  status: ('A' for Active; 'I' for Inactive)
REMARK    1  A    between atoms: _2  and  _3
REMARK    2  A    between atoms: _8  and  _10
REMARK    3  A    between atoms: _10  and  _11
REMARK    4  A    between atoms: _10  and  _13
REMARK    5  A    between atoms: _13  and  _14
REMARK    6  A    between atoms: _17  and  _19
REMARK    7  A    between atoms: _19  and  _20
REMARK    8  A    between atoms: _19  and  _22
REMARK    9  A    between atoms: _22  and  _23
REMARK   10  A    between atoms: _29  and  _31
REMARK   11  A    between atoms: _31  and  _32
REMARK   12  A    between atoms: _31  and  _34
REMARK   13  A    between atoms: _34  and  _35
REMARK   14  A    between atoms: _37  and  _39
REMARK   15  A    between atoms: _39  and  _40
REMARK   16  A    between atoms: _43  and  _45
REMARK   17  A    between atoms: _45  and  _46
REMARK   18  A    between atoms: _45  and  _48
REMARK   19  A    between atoms: _48  and  _49
REMARK   20  A    between atoms: _51  and  _53
REMARK   21  A    between atoms: _53  and  _54
REMARK   22  A    between atoms: _56  and  _58
REMARK   23  A    between atoms: _58  and  _59
REMARK   24  A    between atoms: _58  and  _61
REMARK   25  A    between atoms: _61  and  _62
REMARK   26  A    between atoms: _65  and  _67
REMARK   27  A    between atoms: _67  and  _68
REMARK   28  A    between atoms: _67  and  _70
REMARK   29  A    between atoms: _70  and  _71
REMARK   30  A    between atoms: _74  and  _76
REMARK   31  A    between atoms: _76  and  _77
REMARK   32  A    between atoms: _76  and  _79
REMARK   33  A    between atoms: _79  and  _80
REMARK   34  A    between atoms: _82  and  _84
REMARK   35  A    between atoms: _84  and  _85
REMARK   36  A    between atoms: _84  and  _87
REMARK   37  A    between atoms: _87  and  _88
REMARK   38  A    between atoms: _88  and  _89
REMARK   39  A    between atoms: _92  and  _93
REMARK   40  A    between atoms: _99  and  _100
REMARK   41  A    between atoms: _105  and  _107
REMARK   42  A    between atoms: _107  and  _108
REMARK   43  A    between atoms: _107  and  _110
REMARK   44  A    between atoms: _110  and  _111
REMARK   45  A    between atoms: _114  and  _116
REMARK   46  A    between atoms: _116  and  _117
REMARK   47  A    between atoms: _116  and  _119
REMARK   48  A    between atoms: _119  and  _120
REMARK   49  A    between atoms: _123  and  _125
REMARK   50  A    between atoms: _125  and  _126
REMARK   51  A    between atoms: _125  and  _128
REMARK   52  A    between atoms: _128  and  _129
REMARK   53  A    between atoms: _131  and  _133
REMARK   54  A    between atoms: _133  and  _134
REMARK   55  A    between atoms: _136  and  _138
REMARK   56  A    between atoms: _138  and  _139
REMARK   57  A    between atoms: _138  and  _141
REMARK   58  A    between atoms: _141  and  _142
REMARK   59  A    between atoms: _147  and  _148
REMARK   60  A    between atoms: _150  and  _152
REMARK   61  A    between atoms: _152  and  _153
REMARK   62  A    between atoms: _152  and  _155
REMARK   63  A    between atoms: _155  and  _156
REMARK   64  A    between atoms: _159  and  _161
REMARK   65  A    between atoms: _161  and  _162
REMARK   66  A    between atoms: _161  and  _164
REMARK   67  A    between atoms: _164  and  _165
REMARK   68  A    between atoms: _168  and  _170
REMARK   69  A    between atoms: _170  and  _171
REMARK   70  A    between atoms: _173  and  _175
REMARK   71  A    between atoms: _175  and  _176
REMARK   72  A    between atoms: _175  and  _178
REMARK   73  A    between atoms: _178  and  _179
REMARK   74  A    between atoms: _179  and  _180
REMARK   75  A    between atoms: _185  and  _187
REMARK   76  A    between atoms: _187  and  _188
REMARK   77  A    between atoms: _187  and  _190
REMARK   78  A    between atoms: _190  and  _191
REMARK   79  A    between atoms: _194  and  _196
REMARK   80  A    between atoms: _196  and  _197
REMARK   81  A    between atoms: _196  and  _199
REMARK   82  A    between atoms: _202  and  _204
REMARK   83  A    between atoms: _204  and  _205
REMARK   84  A    between atoms: _204  and  _207
REMARK   85  A    between atoms: _210  and  _212
REMARK   86  A    between atoms: _212  and  _213
REMARK   87  A    between atoms: _216  and  _218
REMARK   88  A    between atoms: _218  and  _219
REMARK   89  A    between atoms: _218  and  _221
REMARK   90  A    between atoms: _221  and  _222
REMARK   91  A    between atoms: _222  and  _223
REMARK   92  A    between atoms: _223  and  _224
REMARK   93  A    between atoms: _233  and  _235
REMARK   94  A    between atoms: _235  and  _236
REMARK   95  A    between atoms: _235  and  _238
REMARK   96  A    between atoms: _238  and  _239
REMARK   97  A    between atoms: _239  and  _240
REMARK   98  A    between atoms: _243  and  _245
REMARK   99  A    between atoms: _245  and  _246
REMARK  100  A    between atoms: _245  and  _248
REMARK  101  A    between atoms: _248  and  _249
REMARK  102  A    between atoms: _252  and  _254
REMARK  103  A    between atoms: _254  and  _255
REMARK  104  A    between atoms: _254  and  _257
REMARK  105  A    between atoms: _257  and  _258
REMARK  106  A    between atoms: _263  and  _265
REMARK  107  A    between atoms: _265  and  _266
REMARK  108  A    between atoms: _265  and  _268
REMARK  109  A    between atoms: _268  and  _269
REMARK  110  A    between atoms: _269  and  _270
REMARK  111  A    between atoms: _270  and  _271
REMARK  112  A    between atoms: _281  and  _282
REMARK  113  A    between atoms: _287  and  _289
REMARK  114  A    between atoms: _289  and  _290
REMARK  115  A    between atoms: _289  and  _292
REMARK  116  A    between atoms: _292  and  _293
REMARK  117  A    between atoms: _298  and  _300
REMARK  118  A    between atoms: _300  and  _301
REMARK  119  A    between atoms: _300  and  _303
REMARK  120  A    between atoms: _303  and  _304
REMARK  121  A    between atoms: _308  and  _309
REMARK  122  A    between atoms: _314  and  _316
REMARK  123  A    between atoms: _316  and  _317
REMARK  124  A    between atoms: _316  and  _319
REMARK  125  A    between atoms: _319  and  _320
REMARK  126  A    between atoms: _322  and  _324
REMARK  127  A    between atoms: _324  and  _325
REMARK  128  A    between atoms: _324  and  _327
REMARK  129  A    between atoms: _327  and  _328
REMARK  130  A    between atoms: _331  and  _333
REMARK  131  A    between atoms: _333  and  _334
REMARK  132  A    between atoms: _333  and  _336
REMARK  133  A    between atoms: _336  and  _337
REMARK  134  A    between atoms: _337  and  _338
REMARK  135  A    between atoms: _338  and  _339
REMARK  136  A    between atoms: _348  and  _350
REMARK  137  A    between atoms: _350  and  _351
REMARK  138  A    between atoms: _350  and  _353
REMARK  139  A    between atoms: _353  and  _354
REMARK  140  A    between atoms: _360  and  _362
REMARK  141  A    between atoms: _362  and  _363
REMARK  142  A    between atoms: _362  and  _365
REMARK  143  A    between atoms: _365  and  _366
REMARK  144  A    between atoms: _368  and  _370
REMARK  145  A    between atoms: _370  and  _371
REMARK  146  A    between atoms: _374  and  _376
REMARK  147  A    between atoms: _376  and  _377
REMARK  148  A    between atoms: _376  and  _379
REMARK  149  A    between atoms: _379  and  _380
REMARK  150  A    between atoms: _385  and  _386
REMARK  151  A    between atoms: _388  and  _390
REMARK  152  A    between atoms: _390  and  _391
REMARK  153  A    between atoms: _390  and  _393
REMARK  154  A    between atoms: _393  and  _394
REMARK  155  A    between atoms: _394  and  _395
REMARK  156  A    between atoms: _397  and  _399
REMARK  157  A    between atoms: _399  and  _400
REMARK  158  A    between atoms: _399  and  _402
REMARK  159  A    between atoms: _402  and  _403
REMARK  160  A    between atoms: _408  and  _409
REMARK  161  A    between atoms: _411  and  _413
REMARK  162  A    between atoms: _413  and  _414
REMARK  163  A    between atoms: _413  and  _416
REMARK  164  A    between atoms: _416  and  _417
REMARK  165  A    between atoms: _420  and  _422
REMARK  166  A    between atoms: _422  and  _423
REMARK  167  A    between atoms: _422  and  _425
REMARK  168  A    between atoms: _425  and  _426
REMARK  169  A    between atoms: _426  and  _427
REMARK  170  A    between atoms: _429  and  _431
REMARK  171  A    between atoms: _431  and  _432
REMARK  172  A    between atoms: _431  and  _434
REMARK  173  A    between atoms: _434  and  _435
REMARK  174  A    between atoms: _439  and  _440
REMARK  175  A    between atoms: _445  and  _447
REMARK  176  A    between atoms: _447  and  _448
REMARK  177  A    between atoms: _447  and  _450
REMARK  178  A    between atoms: _450  and  _451
REMARK  179  A    between atoms: _455  and  _456
REMARK  180  A    between atoms: _461  and  _463
REMARK  181  A    between atoms: _463  and  _464
REMARK  182  A    between atoms: _463  and  _466
REMARK  183  A    between atoms: _466  and  _467
REMARK  184  A    between atoms: _470  and  _472
REMARK  185  A    between atoms: _472  and  _473
REMARK  186  A    between atoms: _472  and  _475
REMARK  187  A    between atoms: _475  and  _476
REMARK  188  A    between atoms: _479  and  _481
REMARK  189  A    between atoms: _481  and  _482
REMARK  190  A    between atoms: _481  and  _484
REMARK  191  A    between atoms: _484  and  _485
REMARK  192  A    between atoms: _487  and  _489
REMARK  193  A    between atoms: _489  and  _490
REMARK  194  A    between atoms: _492  and  _494
REMARK  195  A    between atoms: _494  and  _495
REMARK  196  A    between atoms: _494  and  _497
REMARK  197  A    between atoms: _497  and  _498
REMARK  198  A    between atoms: _503  and  _504
REMARK  199  A    between atoms: _506  and  _508
REMARK  200  A    between atoms: _508  and  _509
REMARK  201  A    between atoms: _508  and  _511
REMARK  202  A    between atoms: _511  and  _512
REMARK  203  A    between atoms: _515  and  _517
REMARK  204  A    between atoms: _517  and  _518
REMARK  205  A    between atoms: _517  and  _520
REMARK  206  A    between atoms: _520  and  _521
REMARK  207  A    between atoms: _524  and  _526
REMARK  208  A    between atoms: _526  and  _527
REMARK  209  A    between atoms: _529  and  _531
REMARK  210  A    between atoms: _531  and  _532
REMARK  211  A    between atoms: _531  and  _534
REMARK  212  A    between atoms: _534  and  _535
REMARK  213  A    between atoms: _535  and  _536
REMARK  214  A    between atoms: _541  and  _543
REMARK  215  A    between atoms: _543  and  _544
REMARK  216  A    between atoms: _543  and  _546
REMARK  217  A    between atoms: _546  and  _547
REMARK  218  A    between atoms: _550  and  _552
REMARK  219  A    between atoms: _552  and  _553
REMARK  220  A    between atoms: _552  and  _555
REMARK  221  A    between atoms: _558  and  _560
REMARK  222  A    between atoms: _560  and  _561
REMARK  223  A    between atoms: _560  and  _563
REMARK  224  A    between atoms: _566  and  _568
REMARK  225  A    between atoms: _568  and  _569
REMARK  226  A    between atoms: _572  and  _574
REMARK  227  A    between atoms: _574  and  _575
REMARK  228  A    between atoms: _574  and  _577
REMARK  229  A    between atoms: _577  and  _578
REMARK  230  A    between atoms: _578  and  _579
REMARK  231  A    between atoms: _579  and  _580
REMARK  232  A    between atoms: _589  and  _591
REMARK  233  A    between atoms: _591  and  _592
REMARK  234  A    between atoms: _591  and  _594
REMARK  235  A    between atoms: _594  and  _595
REMARK  236  A    between atoms: _600  and  _602
REMARK  237  A    between atoms: _602  and  _603
REMARK  238  A    between atoms: _602  and  _605
REMARK  239  A    between atoms: _605  and  _606
REMARK  240  A    between atoms: _610  and  _611
REMARK  241  A    between atoms: _616  and  _618
REMARK  242  A    between atoms: _618  and  _619
REMARK  243  A    between atoms: _618  and  _621
REMARK  244  A    between atoms: _621  and  _622
REMARK  245  A    between atoms: _624  and  _626
REMARK  246  A    between atoms: _626  and  _627
REMARK  247  A    between atoms: _626  and  _629
REMARK  248  A    between atoms: _629  and  _630
REMARK  249  A    between atoms: _633  and  _635
REMARK  250  A    between atoms: _635  and  _636
REMARK  251  A    between atoms: _635  and  _638
REMARK  252  A    between atoms: _638  and  _639
REMARK  253  A    between atoms: _639  and  _640
REMARK  254  A    between atoms: _640  and  _641
REMARK                            x       y       z     vdW  Elec       q    Type
REMARK                         _______ _______ _______ _____ _____    ______ ____
ROOT
ATOM      1  C   PRO A   2     -25.283  -3.584  26.585  0.00  0.00    +0.241 C 
ATOM      2  N   SER A   3     -26.097  -2.527  26.616  0.00  0.00    -0.295 N 
ATOM      3  H   SER A   3     -26.457  -2.181  27.528  0.00  0.00    +0.150 HD
ATOM      4  O   PRO A   2     -24.826  -4.046  25.535  0.00  0.00    -0.273 OA
ENDROOT
BRANCH   1  10
ATOM      5  C   LEU A   1     -24.580  -2.357  29.460  0.00  0.00    +0.241 C 
ATOM      6  N   PRO A   2     -25.375  -3.357  29.043  0.00  0.00    -0.272 N 
ATOM      7  CD  PRO A   2     -26.497  -3.982  29.765  0.00  0.00    +0.094 C 
ATOM      8  CG  PRO A   2     -26.977  -5.024  28.779  0.00  0.00    +0.024 C 
ATOM      9  CB  PRO A   2     -25.694  -5.514  28.175  0.00  0.00    +0.031 C 
ATOM     10  CA  PRO A   2     -24.932  -4.214  27.934  0.00  0.00    +0.152 C 
ATOM     11  O   LEU A   1     -23.475  -2.153  28.959  0.00  0.00    -0.273 OA
BRANCH   5  12
ATOM     12  CA  LEU A   1     -25.074  -1.474  30.605  0.00  0.00    +0.145 C 
BRANCH  12  13
ATOM     13  N   LEU A   1     -26.432  -0.964  30.438  0.00  0.00    -0.238 NA
ATOM     14  H   LEU A   1     -27.157  -1.172  31.154  0.00  0.00    +0.142 HD
ENDBRANCH  12  13
BRANCH  12  15
ATOM     15  CB  LEU A   1     -24.938  -2.180  31.954  0.00  0.00    +0.026 C 
BRANCH  15  16
ATOM     16  CG  LEU A   1     -25.281  -1.236  33.113  0.00  0.00    +0.002 C 
ATOM     17  CD2 LEU A   1     -25.152  -1.968  34.426  0.00  0.00    +0.000 C 
ATOM     18  CD1 LEU A   1     -24.360  -0.012  33.087  0.00  0.00    +0.000 C 
ENDBRANCH  15  16
ENDBRANCH  12  15
ENDBRANCH   5  12
ENDBRANCH   1  10
BRANCH   2  19
ATOM     19  CA  SER A   3     -26.488  -1.851  25.382  0.00  0.00    +0.178 C 
BRANCH  19  20
ATOM     20  C   SER A   3     -25.336  -0.988  24.913  0.00  0.00    +0.243 C 
ATOM     21  O   SER A   3     -24.532  -0.524  25.720  0.00  0.00    -0.273 OA
ATOM     22  N   LEU A   4     -25.277  -0.752  23.608  0.00  0.00    -0.298 N 
ATOM     23  H   LEU A   4     -26.020  -1.127  22.985  0.00  0.00    +0.150 HD
BRANCH  22  24
ATOM     24  CA  LEU A   4     -24.188   0.023  23.039  0.00  0.00    +0.137 C 
BRANCH  24  25
ATOM     25  C   LEU A   4     -24.512   0.604  21.677  0.00  0.00    +0.227 C 
ATOM     26  O   LEU A   4     -25.195  -0.025  20.880  0.00  0.00    -0.286 OA
ENDBRANCH  24  25
BRANCH  24  27
ATOM     27  CB  LEU A   4     -22.961  -0.881  22.871  0.00  0.00    +0.028 C 
BRANCH  27  28
ATOM     28  CG  LEU A   4     -21.812  -0.298  22.050  0.00  0.00    +0.002 C 
ATOM     29  CD2 LEU A   4     -20.997   0.647  22.931  0.00  0.00    +0.000 C 
ATOM     30  CD1 LEU A   4     -20.938  -1.419  21.509  0.00  0.00    +0.000 C 
ENDBRANCH  27  28
ENDBRANCH  24  27
ENDBRANCH  22  24
ENDBRANCH  19  20
BRANCH  19  31
ATOM     31  CB  SER A   3     -27.737  -0.991  25.594  0.00  0.00    +0.166 C 
BRANCH  31  32
ATOM     32  OG  SER A   3     -28.869  -1.805  25.846  0.00  0.00    -0.380 OA
ATOM     33  H   SER A   3     -28.710  -2.346  26.660  0.00  0.00    +0.211 HD
ENDBRANCH  31  32
ENDBRANCH  19  31
ENDBRANCH   2  19
TORSDOF 13
REMARK  Name = ../refined-set-2016/3b2q/3b2q_pocket.pdb
REMARK  254 active torsions:
REMARK  status: ('A' for Active; 'I' for Inactive)
REMARK    1  A    between atoms: _2  and  _3
REMARK    2  A    between atoms: _8  and  _10
REMARK    3  A    between atoms: _10  and  _11
REMARK    4  A    between atoms: _10  and  _13
REMARK    5  A    between atoms: _13  and  _14
REMARK    6  A    between atoms: _17  and  _19
REMARK    7  A    between atoms: _19  and  _20
REMARK    8  A    between atoms: _19  and  _22
REMARK    9  A    between atoms: _22  and  _23
REMARK   10  A    between atoms: _29  and  _31
REMARK   11  A    between atoms: _31  and  _32
REMARK   12  A    between atoms: _31  and  _34
REMARK   13  A    between atoms: _34  and  _35
REMARK   14  A    between atoms: _37  and  _39
REMARK   15  A    between atoms: _39  and  _40
REMARK   16  A    between atoms: _43  and  _45
REMARK   17  A    between atoms: _45  and  _46
REMARK   18  A    between atoms: _45  and  _48
REMARK   19  A    between atoms: _48  and  _49
REMARK   20  A    between atoms: _51  and  _53
REMARK   21  A    between atoms: _53  and  _54
REMARK   22  A    between atoms: _56  and  _58
REMARK   23  A    between atoms: _58  and  _59
REMARK   24  A    between atoms: _58  and  _61
REMARK   25  A    between atoms: _61  and  _62
REMARK   26  A    between atoms: _65  and  _67
REMARK   27  A    between atoms: _67  and  _68
REMARK   28  A    between atoms: _67  and  _70
REMARK   29  A    between atoms: _70  and  _71
REMARK   30  A    between atoms: _74  and  _76
REMARK   31  A    between atoms: _76  and  _77
REMARK   32  A    between atoms: _76  and  _79
REMARK   33  A    between atoms: _79  and  _80
REMARK   34  A    between atoms: _82  and  _84
REMARK   35  A    between atoms: _84  and  _85
REMARK   36  A    between atoms: _84  and  _87
REMARK   37  A    between atoms: _87  and  _88
REMARK   38  A    between atoms: _88  and  _89
REMARK   39  A    between atoms: _92  and  _93
REMARK   40  A    between atoms: _99  and  _100
REMARK   41  A    between atoms: _105  and  _107
REMARK   42  A    between atoms: _107  and  _108
REMARK   43  A    between atoms: _107  and  _110
REMARK   44  A    between atoms: _110  and  _111
REMARK   45  A    between atoms: _114  and  _116
REMARK   46  A    between atoms: _116  and  _117
REMARK   47  A    between atoms: _116  and  _119
REMARK   48  A    between atoms: _119  and  _120
REMARK   49  A    between atoms: _123  and  _125
REMARK   50  A    between atoms: _125  and  _126
REMARK   51  A    between atoms: _125  and  _128
REMARK   52  A    between atoms: _128  and  _129
REMARK   53  A    between atoms: _131  and  _133
REMARK   54  A    between atoms: _133  and  _134
REMARK   55  A    between atoms: _136  and  _138
REMARK   56  A    between atoms: _138  and  _139
REMARK   57  A    between atoms: _138  and  _141
REMARK   58  A    between atoms: _141  and  _142
REMARK   59  A    between atoms: _147  and  _148
REMARK   60  A    between atoms: _150  and  _152
REMARK   61  A    between atoms: _152  and  _153
REMARK   62  A    between atoms: _152  and  _155
REMARK   63  A    between atoms: _155  and  _156
REMARK   64  A    between atoms: _159  and  _161
REMARK   65  A    between atoms: _161  and  _162
REMARK   66  A    between atoms: _161  and  _164
REMARK   67  A    between atoms: _164  and  _165
REMARK   68  A    between atoms: _168  and  _170
REMARK   69  A    between atoms: _170  and  _171
REMARK   70  A    between atoms: _173  and  _175
REMARK   71  A    between atoms: _175  and  _176
REMARK   72  A    between atoms: _175  and  _178
REMARK   73  A    between atoms: _178  and  _179
REMARK   74  A    between atoms: _179  and  _180
REMARK   75  A    between atoms: _185  and  _187
REMARK   76  A    between atoms: _187  and  _188
REMARK   77  A    between atoms: _187  and  _190
REMARK   78  A    between atoms: _190  and  _191
REMARK   79  A    between atoms: _194  and  _196
REMARK   80  A    between atoms: _196  and  _197
REMARK   81  A    between atoms: _196  and  _199
REMARK   82  A    between atoms: _202  and  _204
REMARK   83  A    between atoms: _204  and  _205
REMARK   84  A    between atoms: _204  and  _207
REMARK   85  A    between atoms: _210  and  _212
REMARK   86  A    between atoms: _212  and  _213
REMARK   87  A    between atoms: _216  and  _218
REMARK   88  A    between atoms: _218  and  _219
REMARK   89  A    between atoms: _218  and  _221
REMARK   90  A    between atoms: _221  and  _222
REMARK   91  A    between atoms: _222  and  _223
REMARK   92  A    between atoms: _223  and  _224
REMARK   93  A    between atoms: _233  and  _235
REMARK   94  A    between atoms: _235  and  _236
REMARK   95  A    between atoms: _235  and  _238
REMARK   96  A    between atoms: _238  and  _239
REMARK   97  A    between atoms: _239  and  _240
REMARK   98  A    between atoms: _243  and  _245
REMARK   99  A    between atoms: _245  and  _246
REMARK  100  A    between atoms: _245  and  _248
REMARK  101  A    between atoms: _248  and  _249
REMARK  102  A    between atoms: _252  and  _254
REMARK  103  A    between atoms: _254  and  _255
REMARK  104  A    between atoms: _254  and  _257
REMARK  105  A    between atoms: _257  and  _258
REMARK  106  A    between atoms: _263  and  _265
REMARK  107  A    between atoms: _265  and  _266
REMARK  108  A    between atoms: _265  and  _268
REMARK  109  A    between atoms: _268  and  _269
REMARK  110  A    between atoms: _269  and  _270
REMARK  111  A    between atoms: _270  and  _271
REMARK  112  A    between atoms: _281  and  _282
REMARK  113  A    between atoms: _287  and  _289
REMARK  114  A    between atoms: _289  and  _290
REMARK  115  A    between atoms: _289  and  _292
REMARK  116  A    between atoms: _292  and  _293
REMARK  117  A    between atoms: _298  and  _300
REMARK  118  A    between atoms: _300  and  _301
REMARK  119  A    between atoms: _300  and  _303
REMARK  120  A    between atoms: _303  and  _304
REMARK  121  A    between atoms: _308  and  _309
REMARK  122  A    between atoms: _314  and  _316
REMARK  123  A    between atoms: _316  and  _317
REMARK  124  A    between atoms: _316  and  _319
REMARK  125  A    between atoms: _319  and  _320
REMARK  126  A    between atoms: _322  and  _324
REMARK  127  A    between atoms: _324  and  _325
REMARK  128  A    between atoms: _324  and  _327
REMARK  129  A    between atoms: _327  and  _328
REMARK  130  A    between atoms: _331  and  _333
REMARK  131  A    between atoms: _333  and  _334
REMARK  132  A    between atoms: _333  and  _336
REMARK  133  A    between atoms: _336  and  _337
REMARK  134  A    between atoms: _337  and  _338
REMARK  135  A    between atoms: _338  and  _339
REMARK  136  A    between atoms: _348  and  _350
REMARK  137  A    between atoms: _350  and  _351
REMARK  138  A    between atoms: _350  and  _353
REMARK  139  A    between atoms: _353  and  _354
REMARK  140  A    between atoms: _360  and  _362
REMARK  141  A    between atoms: _362  and  _363
REMARK  142  A    between atoms: _362  and  _365
REMARK  143  A    between atoms: _365  and  _366
REMARK  144  A    between atoms: _368  and  _370
REMARK  145  A    between atoms: _370  and  _371
REMARK  146  A    between atoms: _374  and  _376
REMARK  147  A    between atoms: _376  and  _377
REMARK  148  A    between atoms: _376  and  _379
REMARK  149  A    between atoms: _379  and  _380
REMARK  150  A    between atoms: _385  and  _386
REMARK  151  A    between atoms: _388  and  _390
REMARK  152  A    between atoms: _390  and  _391
REMARK  153  A    between atoms: _390  and  _393
REMARK  154  A    between atoms: _393  and  _394
REMARK  155  A    between atoms: _394  and  _395
REMARK  156  A    between atoms: _397  and  _399
REMARK  157  A    between atoms: _399  and  _400
REMARK  158  A    between atoms: _399  and  _402
REMARK  159  A    between atoms: _402  and  _403
REMARK  160  A    between atoms: _408  and  _409
REMARK  161  A    between atoms: _411  and  _413
REMARK  162  A    between atoms: _413  and  _414
REMARK  163  A    between atoms: _413  and  _416
REMARK  164  A    between atoms: _416  and  _417
REMARK  165  A    between atoms: _420  and  _422
REMARK  166  A    between atoms: _422  and  _423
REMARK  167  A    between atoms: _422  and  _425
REMARK  168  A    between atoms: _425  and  _426
REMARK  169  A    between atoms: _426  and  _427
REMARK  170  A    between atoms: _429  and  _431
REMARK  171  A    between atoms: _431  and  _432
REMARK  172  A    between atoms: _431  and  _434
REMARK  173  A    between atoms: _434  and  _435
REMARK  174  A    between atoms: _439  and  _440
REMARK  175  A    between atoms: _445  and  _447
REMARK  176  A    between atoms: _447  and  _448
REMARK  177  A    between atoms: _447  and  _450
REMARK  178  A    between atoms: _450  and  _451
REMARK  179  A    between atoms: _455  and  _456
REMARK  180  A    between atoms: _461  and  _463
REMARK  181  A    between atoms: _463  and  _464
REMARK  182  A    between atoms: _463  and  _466
REMARK  183  A    between atoms: _466  and  _467
REMARK  184  A    between atoms: _470  and  _472
REMARK  185  A    between atoms: _472  and  _473
REMARK  186  A    between atoms: _472  and  _475
REMARK  187  A    between atoms: _475  and  _476
REMARK  188  A    between atoms: _479  and  _481
REMARK  189  A    between atoms: _481  and  _482
REMARK  190  A    between atoms: _481  and  _484
REMARK  191  A    between atoms: _484  and  _485
REMARK  192  A    between atoms: _487  and  _489
REMARK  193  A    between atoms: _489  and  _490
REMARK  194  A    between atoms: _492  and  _494
REMARK  195  A    between atoms: _494  and  _495
REMARK  196  A    between atoms: _494  and  _497
REMARK  197  A    between atoms: _497  and  _498
REMARK  198  A    between atoms: _503  and  _504
REMARK  199  A    between atoms: _506  and  _508
REMARK  200  A    between atoms: _508  and  _509
REMARK  201  A    between atoms: _508  and  _511
REMARK  202  A    between atoms: _511  and  _512
REMARK  203  A    between atoms: _515  and  _517
REMARK  204  A    between atoms: _517  and  _518
REMARK  205  A    between atoms: _517  and  _520
REMARK  206  A    between atoms: _520  and  _521
REMARK  207  A    between atoms: _524  and  _526
REMARK  208  A    between atoms: _526  and  _527
REMARK  209  A    between atoms: _529  and  _531
REMARK  210  A    between atoms: _531  and  _532
REMARK  211  A    between atoms: _531  and  _534
REMARK  212  A    between atoms: _534  and  _535
REMARK  213  A    between atoms: _535  and  _536
REMARK  214  A    between atoms: _541  and  _543
REMARK  215  A    between atoms: _543  and  _544
REMARK  216  A    between atoms: _543  and  _546
REMARK  217  A    between atoms: _546  and  _547
REMARK  218  A    between atoms: _550  and  _552
REMARK  219  A    between atoms: _552  and  _553
REMARK  220  A    between atoms: _552  and  _555
REMARK  221  A    between atoms: _558  and  _560
REMARK  222  A    between atoms: _560  and  _561
REMARK  223  A    between atoms: _560  and  _563
REMARK  224  A    between atoms: _566  and  _568
REMARK  225  A    between atoms: _568  and  _569
REMARK  226  A    between atoms: _572  and  _574
REMARK  227  A    between atoms: _574  and  _575
REMARK  228  A    between atoms: _574  and  _577
REMARK  229  A    between atoms: _577  and  _578
REMARK  230  A    between atoms: _578  and  _579
REMARK  231  A    between atoms: _579  and  _580
REMARK  232  A    between atoms: _589  and  _591
REMARK  233  A    between atoms: _591  and  _592
REMARK  234  A    between atoms: _591  and  _594
REMARK  235  A    between atoms: _594  and  _595
REMARK  236  A    between atoms: _600  and  _602
REMARK  237  A    between atoms: _602  and  _603
REMARK  238  A    between atoms: _602  and  _605
REMARK  239  A    between atoms: _605  and  _606
REMARK  240  A    between atoms: _610  and  _611
REMARK  241  A    between atoms: _616  and  _618
REMARK  242  A    between atoms: _618  and  _619
REMARK  243  A    between atoms: _618  and  _621
REMARK  244  A    between atoms: _621  and  _622
REMARK  245  A    between atoms: _624  and  _626
REMARK  246  A    between atoms: _626  and  _627
REMARK  247  A    between atoms: _626  and  _629
REMARK  248  A    between atoms: _629  and  _630
REMARK  249  A    between atoms: _633  and  _635
REMARK  250  A    between atoms: _635  and  _636
REMARK  251  A    between atoms: _635  and  _638
REMARK  252  A    between atoms: _638  and  _639
REMARK  253  A    between atoms: _639  and  _640
REMARK  254  A    between atoms: _640  and  _641
REMARK                            x       y       z     vdW  Elec       q    Type
REMARK                         _______ _______ _______ _____ _____    ______ ____
ROOT
ATOM      1  NE  ARG A   1     -19.262  -2.187  18.042  0.00  0.00    -0.265 N 
ATOM      2  CZ  ARG A   1     -18.272  -2.705  18.765  0.00  0.00    +0.342 C 
ATOM      3  NH2 ARG A   1     -18.341  -3.963  19.165  0.00  0.00    -0.292 N 
ATOM      4 HH21 ARG A   1     -17.570  -4.372  19.730  0.00  0.00    +0.255 HD
ATOM      5 HH22 ARG A   1     -19.167  -4.544  18.915  0.00  0.00    +0.255 HD
ATOM      6  NH1 ARG A   1     -17.202  -1.983  19.060  0.00  0.00    -0.292 N 
ATOM      7 HH11 ARG A   1     -16.434  -2.398  19.626  0.00  0.00    +0.255 HD
ATOM      8 HH12 ARG A   1     -17.129  -1.001  18.726  0.00  0.00    +0.255 HD
ATOM      9  HE  ARG A   1     -20.083  -2.794  17.844  0.00  0.00    +0.259 HD
ENDROOT
BRANCH   1  10
ATOM     10  CD  ARG A   1     -19.279  -0.826  17.505  0.00  0.00    +0.174 C 
BRANCH  10  11
ATOM     11  CG  ARG A   1     -19.961   0.179  18.419  0.00  0.00    +0.045 C 
BRANCH  11  12
ATOM     12  CB  ARG A   1     -20.039   1.534  17.732  0.00  0.00    +0.029 C 
BRANCH  12  13
ATOM     13  CA  ARG A   1     -20.692   2.643  18.564  0.00  0.00    +0.133 C 
BRANCH  13  14
ATOM     14  N   ARG A   1     -22.063   2.278  18.906  0.00  0.00    -0.239 NA
ATOM     15  H   ARG A   1     -22.516   1.475  18.424  0.00  0.00    +0.142 HD
ENDBRANCH  13  14
BRANCH  13  16
ATOM     16  C   ARG A   1     -20.540   3.967  17.822  0.00  0.00    +0.224 C 
ATOM     17  O   ARG A   1     -19.448   4.520  17.780  0.00  0.00    -0.287 OA
ENDBRANCH  13  16
ENDBRANCH  12  13
ENDBRANCH  11  12
ENDBRANCH  10  11
ENDBRANCH   1  10
TORSDOF 6
REMARK  Name = ../refined-set-2016/3b2q/3b2q_pocket.pdb
REMARK  254 active torsions:
REMARK  status: ('A' for Active; 'I' for Inactive)
REMARK    1  A    between atoms: _2  and  _3
REMARK    2  A    between atoms: _8  and  _10
REMARK    3  A    between atoms: _10  and  _11
REMARK    4  A    between atoms: _10  and  _13
REMARK    5  A    between atoms: _13  and  _14
REMARK    6  A    between atoms: _17  and  _19
REMARK    7  A    between atoms: _19  and  _20
REMARK    8  A    between atoms: _19  and  _22
REMARK    9  A    between atoms: _22  and  _23
REMARK   10  A    between atoms: _29  and  _31
REMARK   11  A    between atoms: _31  and  _32
REMARK   12  A    between atoms: _31  and  _34
REMARK   13  A    between atoms: _34  and  _35
REMARK   14  A    between atoms: _37  and  _39
REMARK   15  A    between atoms: _39  and  _40
REMARK   16  A    between atoms: _43  and  _45
REMARK   17  A    between atoms: _45  and  _46
REMARK   18  A    between atoms: _45  and  _48
REMARK   19  A    between atoms: _48  and  _49
REMARK   20  A    between atoms: _51  and  _53
REMARK   21  A    between atoms: _53  and  _54
REMARK   22  A    between atoms: _56  and  _58
REMARK   23  A    between atoms: _58  and  _59
REMARK   24  A    between atoms: _58  and  _61
REMARK   25  A    between atoms: _61  and  _62
REMARK   26  A    between atoms: _65  and  _67
REMARK   27  A    between atoms: _67  and  _68
REMARK   28  A    between atoms: _67  and  _70
REMARK   29  A    between atoms: _70  and  _71
REMARK   30  A    between atoms: _74  and  _76
REMARK   31  A    between atoms: _76  and  _77
REMARK   32  A    between atoms: _76  and  _79
REMARK   33  A    between atoms: _79  and  _80
REMARK   34  A    between atoms: _82  and  _84
REMARK   35  A    between atoms: _84  and  _85
REMARK   36  A    between atoms: _84  and  _87
REMARK   37  A    between atoms: _87  and  _88
REMARK   38  A    between atoms: _88  and  _89
REMARK   39  A    between atoms: _92  and  _93
REMARK   40  A    between atoms: _99  and  _100
REMARK   41  A    between atoms: _105  and  _107
REMARK   42  A    between atoms: _107  and  _108
REMARK   43  A    between atoms: _107  and  _110
REMARK   44  A    between atoms: _110  and  _111
REMARK   45  A    between atoms: _114  and  _116
REMARK   46  A    between atoms: _116  and  _117
REMARK   47  A    between atoms: _116  and  _119
REMARK   48  A    between atoms: _119  and  _120
REMARK   49  A    between atoms: _123  and  _125
REMARK   50  A    between atoms: _125  and  _126
REMARK   51  A    between atoms: _125  and  _128
REMARK   52  A    between atoms: _128  and  _129
REMARK   53  A    between atoms: _131  and  _133
REMARK   54  A    between atoms: _133  and  _134
REMARK   55  A    between atoms: _136  and  _138
REMARK   56  A    between atoms: _138  and  _139
REMARK   57  A    between atoms: _138  and  _141
REMARK   58  A    between atoms: _141  and  _142
REMARK   59  A    between atoms: _147  and  _148
REMARK   60  A    between atoms: _150  and  _152
REMARK   61  A    between atoms: _152  and  _153
REMARK   62  A    between atoms: _152  and  _155
REMARK   63  A    between atoms: _155  and  _156
REMARK   64  A    between atoms: _159  and  _161
REMARK   65  A    between atoms: _161  and  _162
REMARK   66  A    between atoms: _161  and  _164
REMARK   67  A    between atoms: _164  and  _165
REMARK   68  A    between atoms: _168  and  _170
REMARK   69  A    between atoms: _170  and  _171
REMARK   70  A    between atoms: _173  and  _175
REMARK   71  A    between atoms: _175  and  _176
REMARK   72  A    between atoms: _175  and  _178
REMARK   73  A    between atoms: _178  and  _179
REMARK   74  A    between atoms: _179  and  _180
REMARK   75  A    between atoms: _185  and  _187
REMARK   76  A    between atoms: _187  and  _188
REMARK   77  A    between atoms: _187  and  _190
REMARK   78  A    between atoms: _190  and  _191
REMARK   79  A    between atoms: _194  and  _196
REMARK   80  A    between atoms: _196  and  _197
REMARK   81  A    between atoms: _196  and  _199
REMARK   82  A    between atoms: _202  and  _204
REMARK   83  A    between atoms: _204  and  _205
REMARK   84  A    between atoms: _204  and  _207
REMARK   85  A    between atoms: _210  and  _212
REMARK   86  A    between atoms: _212  and  _213
REMARK   87  A    between atoms: _216  and  _218
REMARK   88  A    between atoms: _218  and  _219
REMARK   89  A    between atoms: _218  and  _221
REMARK   90  A    between atoms: _221  and  _222
REMARK   91  A    between atoms: _222  and  _223
REMARK   92  A    between atoms: _223  and  _224
REMARK   93  A    between atoms: _233  and  _235
REMARK   94  A    between atoms: _235  and  _236
REMARK   95  A    between atoms: _235  and  _238
REMARK   96  A    between atoms: _238  and  _239
REMARK   97  A    between atoms: _239  and  _240
REMARK   98  A    between atoms: _243  and  _245
REMARK   99  A    between atoms: _245  and  _246
REMARK  100  A    between atoms: _245  and  _248
REMARK  101  A    between atoms: _248  and  _249
REMARK  102  A    between atoms: _252  and  _254
REMARK  103  A    between atoms: _254  and  _255
REMARK  104  A    between atoms: _254  and  _257
REMARK  105  A    between atoms: _257  and  _258
REMARK  106  A    between atoms: _263  and  _265
REMARK  107  A    between atoms: _265  and  _266
REMARK  108  A    between atoms: _265  and  _268
REMARK  109  A    between atoms: _268  and  _269
REMARK  110  A    between atoms: _269  and  _270
REMARK  111  A    between atoms: _270  and  _271
REMARK  112  A    between atoms: _281  and  _282
REMARK  113  A    between atoms: _287  and  _289
REMARK  114  A    between atoms: _289  and  _290
REMARK  115  A    between atoms: _289  and  _292
REMARK  116  A    between atoms: _292  and  _293
REMARK  117  A    between atoms: _298  and  _300
REMARK  118  A    between atoms: _300  and  _301
REMARK  119  A    between atoms: _300  and  _303
REMARK  120  A    between atoms: _303  and  _304
REMARK  121  A    between atoms: _308  and  _309
REMARK  122  A    between atoms: _314  and  _316
REMARK  123  A    between atoms: _316  and  _317
REMARK  124  A    between atoms: _316  and  _319
REMARK  125  A    between atoms: _319  and  _320
REMARK  126  A    between atoms: _322  and  _324
REMARK  127  A    between atoms: _324  and  _325
REMARK  128  A    between atoms: _324  and  _327
REMARK  129  A    between atoms: _327  and  _328
REMARK  130  A    between atoms: _331  and  _333
REMARK  131  A    between atoms: _333  and  _334
REMARK  132  A    between atoms: _333  and  _336
REMARK  133  A    between atoms: _336  and  _337
REMARK  134  A    between atoms: _337  and  _338
REMARK  135  A    between atoms: _338  and  _339
REMARK  136  A    between atoms: _348  and  _350
REMARK  137  A    between atoms: _350  and  _351
REMARK  138  A    between atoms: _350  and  _353
REMARK  139  A    between atoms: _353  and  _354
REMARK  140  A    between atoms: _360  and  _362
REMARK  141  A    between atoms: _362  and  _363
REMARK  142  A    between atoms: _362  and  _365
REMARK  143  A    between atoms: _365  and  _366
REMARK  144  A    between atoms: _368  and  _370
REMARK  145  A    between atoms: _370  and  _371
REMARK  146  A    between atoms: _374  and  _376
REMARK  147  A    between atoms: _376  and  _377
REMARK  148  A    between atoms: _376  and  _379
REMARK  149  A    between atoms: _379  and  _380
REMARK  150  A    between atoms: _385  and  _386
REMARK  151  A    between atoms: _388  and  _390
REMARK  152  A    between atoms: _390  and  _391
REMARK  153  A    between atoms: _390  and  _393
REMARK  154  A    between atoms: _393  and  _394
REMARK  155  A    between atoms: _394  and  _395
REMARK  156  A    between atoms: _397  and  _399
REMARK  157  A    between atoms: _399  and  _400
REMARK  158  A    between atoms: _399  and  _402
REMARK  159  A    between atoms: _402  and  _403
REMARK  160  A    between atoms: _408  and  _409
REMARK  161  A    between atoms: _411  and  _413
REMARK  162  A    between atoms: _413  and  _414
REMARK  163  A    between atoms: _413  and  _416
REMARK  164  A    between atoms: _416  and  _417
REMARK  165  A    between atoms: _420  and  _422
REMARK  166  A    between atoms: _422  and  _423
REMARK  167  A    between atoms: _422  and  _425
REMARK  168  A    between atoms: _425  and  _426
REMARK  169  A    between atoms: _426  and  _427
REMARK  170  A    between atoms: _429  and  _431
REMARK  171  A    between atoms: _431  and  _432
REMARK  172  A    between atoms: _431  and  _434
REMARK  173  A    between atoms: _434  and  _435
REMARK  174  A    between atoms: _439  and  _440
REMARK  175  A    between atoms: _445  and  _447
REMARK  176  A    between atoms: _447  and  _448
REMARK  177  A    between atoms: _447  and  _450
REMARK  178  A    between atoms: _450  and  _451
REMARK  179  A    between atoms: _455  and  _456
REMARK  180  A    between atoms: _461  and  _463
REMARK  181  A    between atoms: _463  and  _464
REMARK  182  A    between atoms: _463  and  _466
REMARK  183  A    between atoms: _466  and  _467
REMARK  184  A    between atoms: _470  and  _472
REMARK  185  A    between atoms: _472  and  _473
REMARK  186  A    between atoms: _472  and  _475
REMARK  187  A    between atoms: _475  and  _476
REMARK  188  A    between atoms: _479  and  _481
REMARK  189  A    between atoms: _481  and  _482
REMARK  190  A    between atoms: _481  and  _484
REMARK  191  A    between atoms: _484  and  _485
REMARK  192  A    between atoms: _487  and  _489
REMARK  193  A    between atoms: _489  and  _490
REMARK  194  A    between atoms: _492  and  _494
REMARK  195  A    between atoms: _494  and  _495
REMARK  196  A    between atoms: _494  and  _497
REMARK  197  A    between atoms: _497  and  _498
REMARK  198  A    between atoms: _503  and  _504
REMARK  199  A    between atoms: _506  and  _508
REMARK  200  A    between atoms: _508  and  _509
REMARK  201  A    between atoms: _508  and  _511
REMARK  202  A    between atoms: _511  and  _512
REMARK  203  A    between atoms: _515  and  _517
REMARK  204  A    between atoms: _517  and  _518
REMARK  205  A    between atoms: _517  and  _520
REMARK  206  A    between atoms: _520  and  _521
REMARK  207  A    between atoms: _524  and  _526
REMARK  208  A    between atoms: _526  and  _527
REMARK  209  A    between atoms: _529  and  _531
REMARK  210  A    between atoms: _531  and  _532
REMARK  211  A    between atoms: _531  and  _534
REMARK  212  A    between atoms: _534  and  _535
REMARK  213  A    between atoms: _535  and  _536
REMARK  214  A    between atoms: _541  and  _543
REMARK  215  A    between atoms: _543  and  _544
REMARK  216  A    between atoms: _543  and  _546
REMARK  217  A    between atoms: _546  and  _547
REMARK  218  A    between atoms: _550  and  _552
REMARK  219  A    between atoms: _552  and  _553
REMARK  220  A    between atoms: _552  and  _555
REMARK  221  A    between atoms: _558  and  _560
REMARK  222  A    between atoms: _560  and  _561
REMARK  223  A    between atoms: _560  and  _563
REMARK  224  A    between atoms: _566  and  _568
REMARK  225  A    between atoms: _568  and  _569
REMARK  226  A    between atoms: _572  and  _574
REMARK  227  A    between atoms: _574  and  _575
REMARK  228  A    between atoms: _574  and  _577
REMARK  229  A    between atoms: _577  and  _578
REMARK  230  A    between atoms: _578  and  _579
REMARK  231  A    between atoms: _579  and  _580
REMARK  232  A    between atoms: _589  and  _591
REMARK  233  A    between atoms: _591  and  _592
REMARK  234  A    between atoms: _591  and  _594
REMARK  235  A    between atoms: _594  and  _595
REMARK  236  A    between atoms: _600  and  _602
REMARK  237  A    between atoms: _602  and  _603
REMARK  238  A    between atoms: _602  and  _605
REMARK  239  A    between atoms: _605  and  _606
REMARK  240  A    between atoms: _610  and  _611
REMARK  241  A    between atoms: _616  and  _618
REMARK  242  A    between atoms: _618  and  _619
REMARK  243  A    between atoms: _618  and  _621
REMARK  244  A    between atoms: _621  and  _622
REMARK  245  A    between atoms: _624  and  _626
REMARK  246  A    between atoms: _626  and  _627
REMARK  247  A    between atoms: _626  and  _629
REMARK  248  A    between atoms: _629  and  _630
REMARK  249  A    between atoms: _633  and  _635
REMARK  250  A    between atoms: _635  and  _636
REMARK  251  A    between atoms: _635  and  _638
REMARK  252  A    between atoms: _638  and  _639
REMARK  253  A    between atoms: _639  and  _640
REMARK  254  A    between atoms: _640  and  _641
REMARK                            x       y       z     vdW  Elec       q    Type
REMARK                         _______ _______ _______ _____ _____    ______ ____
ROOT
ATOM      1  O   HOH     1     -21.014  -3.787  28.197  0.00  0.00    +0.000 OA
ENDROOT
TORSDOF 0
REMARK  Name = ../refined-set-2016/3b2q/3b2q_pocket.pdb
REMARK  254 active torsions:
REMARK  status: ('A' for Active; 'I' for Inactive)
REMARK    1  A    between atoms: _2  and  _3
REMARK    2  A    between atoms: _8  and  _10
REMARK    3  A    between atoms: _10  and  _11
REMARK    4  A    between atoms: _10  and  _13
REMARK    5  A    between atoms: _13  and  _14
REMARK    6  A    between atoms: _17  and  _19
REMARK    7  A    between atoms: _19  and  _20
REMARK    8  A    between atoms: _19  and  _22
REMARK    9  A    between atoms: _22  and  _23
REMARK   10  A    between atoms: _29  and  _31
REMARK   11  A    between atoms: _31  and  _32
REMARK   12  A    between atoms: _31  and  _34
REMARK   13  A    between atoms: _34  and  _35
REMARK   14  A    between atoms: _37  and  _39
REMARK   15  A    between atoms: _39  and  _40
REMARK   16  A    between atoms: _43  and  _45
REMARK   17  A    between atoms: _45  and  _46
REMARK   18  A    between atoms: _45  and  _48
REMARK   19  A    between atoms: _48  and  _49
REMARK   20  A    between atoms: _51  and  _53
REMARK   21  A    between atoms: _53  and  _54
REMARK   22  A    between atoms: _56  and  _58
REMARK   23  A    between atoms: _58  and  _59
REMARK   24  A    between atoms: _58  and  _61
REMARK   25  A    between atoms: _61  and  _62
REMARK   26  A    between atoms: _65  and  _67
REMARK   27  A    between atoms: _67  and  _68
REMARK   28  A    between atoms: _67  and  _70
REMARK   29  A    between atoms: _70  and  _71
REMARK   30  A    between atoms: _74  and  _76
REMARK   31  A    between atoms: _76  and  _77
REMARK   32  A    between atoms: _76  and  _79
REMARK   33  A    between atoms: _79  and  _80
REMARK   34  A    between atoms: _82  and  _84
REMARK   35  A    between atoms: _84  and  _85
REMARK   36  A    between atoms: _84  and  _87
REMARK   37  A    between atoms: _87  and  _88
REMARK   38  A    between atoms: _88  and  _89
REMARK   39  A    between atoms: _92  and  _93
REMARK   40  A    between atoms: _99  and  _100
REMARK   41  A    between atoms: _105  and  _107
REMARK   42  A    between atoms: _107  and  _108
REMARK   43  A    between atoms: _107  and  _110
REMARK   44  A    between atoms: _110  and  _111
REMARK   45  A    between atoms: _114  and  _116
REMARK   46  A    between atoms: _116  and  _117
REMARK   47  A    between atoms: _116  and  _119
REMARK   48  A    between atoms: _119  and  _120
REMARK   49  A    between atoms: _123  and  _125
REMARK   50  A    between atoms: _125  and  _126
REMARK   51  A    between atoms: _125  and  _128
REMARK   52  A    between atoms: _128  and  _129
REMARK   53  A    between atoms: _131  and  _133
REMARK   54  A    between atoms: _133  and  _134
REMARK   55  A    between atoms: _136  and  _138
REMARK   56  A    between atoms: _138  and  _139
REMARK   57  A    between atoms: _138  and  _141
REMARK   58  A    between atoms: _141  and  _142
REMARK   59  A    between atoms: _147  and  _148
REMARK   60  A    between atoms: _150  and  _152
REMARK   61  A    between atoms: _152  and  _153
REMARK   62  A    between atoms: _152  and  _155
REMARK   63  A    between atoms: _155  and  _156
REMARK   64  A    between atoms: _159  and  _161
REMARK   65  A    between atoms: _161  and  _162
REMARK   66  A    between atoms: _161  and  _164
REMARK   67  A    between atoms: _164  and  _165
REMARK   68  A    between atoms: _168  and  _170
REMARK   69  A    between atoms: _170  and  _171
REMARK   70  A    between atoms: _173  and  _175
REMARK   71  A    between atoms: _175  and  _176
REMARK   72  A    between atoms: _175  and  _178
REMARK   73  A    between atoms: _178  and  _179
REMARK   74  A    between atoms: _179  and  _180
REMARK   75  A    between atoms: _185  and  _187
REMARK   76  A    between atoms: _187  and  _188
REMARK   77  A    between atoms: _187  and  _190
REMARK   78  A    between atoms: _190  and  _191
REMARK   79  A    between atoms: _194  and  _196
REMARK   80  A    between atoms: _196  and  _197
REMARK   81  A    between atoms: _196  and  _199
REMARK   82  A    between atoms: _202  and  _204
REMARK   83  A    between atoms: _204  and  _205
REMARK   84  A    between atoms: _204  and  _207
REMARK   85  A    between atoms: _210  and  _212
REMARK   86  A    between atoms: _212  and  _213
REMARK   87  A    between atoms: _216  and  _218
REMARK   88  A    between atoms: _218  and  _219
REMARK   89  A    between atoms: _218  and  _221
REMARK   90  A    between atoms: _221  and  _222
REMARK   91  A    between atoms: _222  and  _223
REMARK   92  A    between atoms: _223  and  _224
REMARK   93  A    between atoms: _233  and  _235
REMARK   94  A    between atoms: _235  and  _236
REMARK   95  A    between atoms: _235  and  _238
REMARK   96  A    between atoms: _238  and  _239
REMARK   97  A    between atoms: _239  and  _240
REMARK   98  A    between atoms: _243  and  _245
REMARK   99  A    between atoms: _245  and  _246
REMARK  100  A    between atoms: _245  and  _248
REMARK  101  A    between atoms: _248  and  _249
REMARK  102  A    between atoms: _252  and  _254
REMARK  103  A    between atoms: _254  and  _255
REMARK  104  A    between atoms: _254  and  _257
REMARK  105  A    between atoms: _257  and  _258
REMARK  106  A    between atoms: _263  and  _265
REMARK  107  A    between atoms: _265  and  _266
REMARK  108  A    between atoms: _265  and  _268
REMARK  109  A    between atoms: _268  and  _269
REMARK  110  A    between atoms: _269  and  _270
REMARK  111  A    between atoms: _270  and  _271
REMARK  112  A    between atoms: _281  and  _282
REMARK  113  A    between atoms: _287  and  _289
REMARK  114  A    between atoms: _289  and  _290
REMARK  115  A    between atoms: _289  and  _292
REMARK  116  A    between atoms: _292  and  _293
REMARK  117  A    between atoms: _298  and  _300
REMARK  118  A    between atoms: _300  and  _301
REMARK  119  A    between atoms: _300  and  _303
REMARK  120  A    between atoms: _303  and  _304
REMARK  121  A    between atoms: _308  and  _309
REMARK  122  A    between atoms: _314  and  _316
REMARK  123  A    between atoms: _316  and  _317
REMARK  124  A    between atoms: _316  and  _319
REMARK  125  A    between atoms: _319  and  _320
REMARK  126  A    between atoms: _322  and  _324
REMARK  127  A    between atoms: _324  and  _325
REMARK  128  A    between atoms: _324  and  _327
REMARK  129  A    between atoms: _327  and  _328
REMARK  130  A    between atoms: _331  and  _333
REMARK  131  A    between atoms: _333  and  _334
REMARK  132  A    between atoms: _333  and  _336
REMARK  133  A    between atoms: _336  and  _337
REMARK  134  A    between atoms: _337  and  _338
REMARK  135  A    between atoms: _338  and  _339
REMARK  136  A    between atoms: _348  and  _350
REMARK  137  A    between atoms: _350  and  _351
REMARK  138  A    between atoms: _350  and  _353
REMARK  139  A    between atoms: _353  and  _354
REMARK  140  A    between atoms: _360  and  _362
REMARK  141  A    between atoms: _362  and  _363
REMARK  142  A    between atoms: _362  and  _365
REMARK  143  A    between atoms: _365  and  _366
REMARK  144  A    between atoms: _368  and  _370
REMARK  145  A    between atoms: _370  and  _371
REMARK  146  A    between atoms: _374  and  _376
REMARK  147  A    between atoms: _376  and  _377
REMARK  148  A    between atoms: _376  and  _379
REMARK  149  A    between atoms: _379  and  _380
REMARK  150  A    between atoms: _385  and  _386
REMARK  151  A    between atoms: _388  and  _390
REMARK  152  A    between atoms: _390  and  _391
REMARK  153  A    between atoms: _390  and  _393
REMARK  154  A    between atoms: _393  and  _394
REMARK  155  A    between atoms: _394  and  _395
REMARK  156  A    between atoms: _397  and  _399
REMARK  157  A    between atoms: _399  and  _400
REMARK  158  A    between atoms: _399  and  _402
REMARK  159  A    between atoms: _402  and  _403
REMARK  160  A    between atoms: _408  and  _409
REMARK  161  A    between atoms: _411  and  _413
REMARK  162  A    between atoms: _413  and  _414
REMARK  163  A    between atoms: _413  and  _416
REMARK  164  A    between atoms: _416  and  _417
REMARK  165  A    between atoms: _420  and  _422
REMARK  166  A    between atoms: _422  and  _423
REMARK  167  A    between atoms: _422  and  _425
REMARK  168  A    between atoms: _425  and  _426
REMARK  169  A    between atoms: _426  and  _427
REMARK  170  A    between atoms: _429  and  _431
REMARK  171  A    between atoms: _431  and  _432
REMARK  172  A    between atoms: _431  and  _434
REMARK  173  A    between atoms: _434  and  _435
REMARK  174  A    between atoms: _439  and  _440
REMARK  175  A    between atoms: _445  and  _447
REMARK  176  A    between atoms: _447  and  _448
REMARK  177  A    between atoms: _447  and  _450
REMARK  178  A    between atoms: _450  and  _451
REMARK  179  A    between atoms: _455  and  _456
REMARK  180  A    between atoms: _461  and  _463
REMARK  181  A    between atoms: _463  and  _464
REMARK  182  A    between atoms: _463  and  _466
REMARK  183  A    between atoms: _466  and  _467
REMARK  184  A    between atoms: _470  and  _472
REMARK  185  A    between atoms: _472  and  _473
REMARK  186  A    between atoms: _472  and  _475
REMARK  187  A    between atoms: _475  and  _476
REMARK  188  A    between atoms: _479  and  _481
REMARK  189  A    between atoms: _481  and  _482
REMARK  190  A    between atoms: _481  and  _484
REMARK  191  A    between atoms: _484  and  _485
REMARK  192  A    between atoms: _487  and  _489
REMARK  193  A    between atoms: _489  and  _490
REMARK  194  A    between atoms: _492  and  _494
REMARK  195  A    between atoms: _494  and  _495
REMARK  196  A    between atoms: _494  and  _497
REMARK  197  A    between atoms: _497  and  _498
REMARK  198  A    between atoms: _503  and  _504
REMARK  199  A    between atoms: _506  and  _508
REMARK  200  A    between atoms: _508  and  _509
REMARK  201  A    between atoms: _508  and  _511
REMARK  202  A    between atoms: _511  and  _512
REMARK  203  A    between atoms: _515  and  _517
REMARK  204  A    between atoms: _517  and  _518
REMARK  205  A    between atoms: _517  and  _520
REMARK  206  A    between atoms: _520  and  _521
REMARK  207  A    between atoms: _524  and  _526
REMARK  208  A    between atoms: _526  and  _527
REMARK  209  A    between atoms: _529  and  _531
REMARK  210  A    between atoms: _531  and  _532
REMARK  211  A    between atoms: _531  and  _534
REMARK  212  A    between atoms: _534  and  _535
REMARK  213  A    between atoms: _535  and  _536
REMARK  214  A    between atoms: _541  and  _543
REMARK  215  A    between atoms: _543  and  _544
REMARK  216  A    between atoms: _543  and  _546
REMARK  217  A    between atoms: _546  and  _547
REMARK  218  A    between atoms: _550  and  _552
REMARK  219  A    between atoms: _552  and  _553
REMARK  220  A    between atoms: _552  and  _555
REMARK  221  A    between atoms: _558  and  _560
REMARK  222  A    between atoms: _560  and  _561
REMARK  223  A    between atoms: _560  and  _563
REMARK  224  A    between atoms: _566  and  _568
REMARK  225  A    between atoms: _568  and  _569
REMARK  226  A    between atoms: _572  and  _574
REMARK  227  A    between atoms: _574  and  _575
REMARK  228  A    between atoms: _574  and  _577
REMARK  229  A    between atoms: _577  and  _578
REMARK  230  A    between atoms: _578  and  _579
REMARK  231  A    between atoms: _579  and  _580
REMARK  232  A    between atoms: _589  and  _591
REMARK  233  A    between atoms: _591  and  _592
REMARK  234  A    between atoms: _591  and  _594
REMARK  235  A    between atoms: _594  and  _595
REMARK  236  A    between atoms: _600  and  _602
REMARK  237  A    between atoms: _602  and  _603
REMARK  238  A    between atoms: _602  and  _605
REMARK  239  A    between atoms: _605  and  _606
REMARK  240  A    between atoms: _610  and  _611
REMARK  241  A    between atoms: _616  and  _618
REMARK  242  A    between atoms: _618  and  _619
REMARK  243  A    between atoms: _618  and  _621
REMARK  244  A    between atoms: _621  and  _622
REMARK  245  A    between atoms: _624  and  _626
REMARK  246  A    between atoms: _626  and  _627
REMARK  247  A    between atoms: _626  and  _629
REMARK  248  A    between atoms: _629  and  _630
REMARK  249  A    between atoms: _633  and  _635
REMARK  250  A    between atoms: _635  and  _636
REMARK  251  A    between atoms: _635  and  _638
REMARK  252  A    between atoms: _638  and  _639
REMARK  253  A    between atoms: _639  and  _640
REMARK  254  A    between atoms: _640  and  _641
REMARK                            x       y       z     vdW  Elec       q    Type
REMARK                         _______ _______ _______ _____ _____    ______ ____
ROOT
ATOM      1  O   HOH     1     -22.127  -4.991  25.678  0.00  0.00    +0.000 OA
ENDROOT
TORSDOF 0
REMARK  Name = ../refined-set-2016/3b2q/3b2q_pocket.pdb
REMARK  254 active torsions:
REMARK  status: ('A' for Active; 'I' for Inactive)
REMARK    1  A    between atoms: _2  and  _3
REMARK    2  A    between atoms: _8  and  _10
REMARK    3  A    between atoms: _10  and  _11
REMARK    4  A    between atoms: _10  and  _13
REMARK    5  A    between atoms: _13  and  _14
REMARK    6  A    between atoms: _17  and  _19
REMARK    7  A    between atoms: _19  and  _20
REMARK    8  A    between atoms: _19  and  _22
REMARK    9  A    between atoms: _22  and  _23
REMARK   10  A    between atoms: _29  and  _31
REMARK   11  A    between atoms: _31  and  _32
REMARK   12  A    between atoms: _31  and  _34
REMARK   13  A    between atoms: _34  and  _35
REMARK   14  A    between atoms: _37  and  _39
REMARK   15  A    between atoms: _39  and  _40
REMARK   16  A    between atoms: _43  and  _45
REMARK   17  A    between atoms: _45  and  _46
REMARK   18  A    between atoms: _45  and  _48
REMARK   19  A    between atoms: _48  and  _49
REMARK   20  A    between atoms: _51  and  _53
REMARK   21  A    between atoms: _53  and  _54
REMARK   22  A    between atoms: _56  and  _58
REMARK   23  A    between atoms: _58  and  _59
REMARK   24  A    between atoms: _58  and  _61
REMARK   25  A    between atoms: _61  and  _62
REMARK   26  A    between atoms: _65  and  _67
REMARK   27  A    between atoms: _67  and  _68
REMARK   28  A    between atoms: _67  and  _70
REMARK   29  A    between atoms: _70  and  _71
REMARK   30  A    between atoms: _74  and  _76
REMARK   31  A    between atoms: _76  and  _77
REMARK   32  A    between atoms: _76  and  _79
REMARK   33  A    between atoms: _79  and  _80
REMARK   34  A    between atoms: _82  and  _84
REMARK   35  A    between atoms: _84  and  _85
REMARK   36  A    between atoms: _84  and  _87
REMARK   37  A    between atoms: _87  and  _88
REMARK   38  A    between atoms: _88  and  _89
REMARK   39  A    between atoms: _92  and  _93
REMARK   40  A    between atoms: _99  and  _100
REMARK   41  A    between atoms: _105  and  _107
REMARK   42  A    between atoms: _107  and  _108
REMARK   43  A    between atoms: _107  and  _110
REMARK   44  A    between atoms: _110  and  _111
REMARK   45  A    between atoms: _114  and  _116
REMARK   46  A    between atoms: _116  and  _117
REMARK   47  A    between atoms: _116  and  _119
REMARK   48  A    between atoms: _119  and  _120
REMARK   49  A    between atoms: _123  and  _125
REMARK   50  A    between atoms: _125  and  _126
REMARK   51  A    between atoms: _125  and  _128
REMARK   52  A    between atoms: _128  and  _129
REMARK   53  A    between atoms: _131  and  _133
REMARK   54  A    between atoms: _133  and  _134
REMARK   55  A    between atoms: _136  and  _138
REMARK   56  A    between atoms: _138  and  _139
REMARK   57  A    between atoms: _138  and  _141
REMARK   58  A    between atoms: _141  and  _142
REMARK   59  A    between atoms: _147  and  _148
REMARK   60  A    between atoms: _150  and  _152
REMARK   61  A    between atoms: _152  and  _153
REMARK   62  A    between atoms: _152  and  _155
REMARK   63  A    between atoms: _155  and  _156
REMARK   64  A    between atoms: _159  and  _161
REMARK   65  A    between atoms: _161  and  _162
REMARK   66  A    between atoms: _161  and  _164
REMARK   67  A    between atoms: _164  and  _165
REMARK   68  A    between atoms: _168  and  _170
REMARK   69  A    between atoms: _170  and  _171
REMARK   70  A    between atoms: _173  and  _175
REMARK   71  A    between atoms: _175  and  _176
REMARK   72  A    between atoms: _175  and  _178
REMARK   73  A    between atoms: _178  and  _179
REMARK   74  A    between atoms: _179  and  _180
REMARK   75  A    between atoms: _185  and  _187
REMARK   76  A    between atoms: _187  and  _188
REMARK   77  A    between atoms: _187  and  _190
REMARK   78  A    between atoms: _190  and  _191
REMARK   79  A    between atoms: _194  and  _196
REMARK   80  A    between atoms: _196  and  _197
REMARK   81  A    between atoms: _196  and  _199
REMARK   82  A    between atoms: _202  and  _204
REMARK   83  A    between atoms: _204  and  _205
REMARK   84  A    between atoms: _204  and  _207
REMARK   85  A    between atoms: _210  and  _212
REMARK   86  A    between atoms: _212  and  _213
REMARK   87  A    between atoms: _216  and  _218
REMARK   88  A    between atoms: _218  and  _219
REMARK   89  A    between atoms: _218  and  _221
REMARK   90  A    between atoms: _221  and  _222
REMARK   91  A    between atoms: _222  and  _223
REMARK   92  A    between atoms: _223  and  _224
REMARK   93  A    between atoms: _233  and  _235
REMARK   94  A    between atoms: _235  and  _236
REMARK   95  A    between atoms: _235  and  _238
REMARK   96  A    between atoms: _238  and  _239
REMARK   97  A    between atoms: _239  and  _240
REMARK   98  A    between atoms: _243  and  _245
REMARK   99  A    between atoms: _245  and  _246
REMARK  100  A    between atoms: _245  and  _248
REMARK  101  A    between atoms: _248  and  _249
REMARK  102  A    between atoms: _252  and  _254
REMARK  103  A    between atoms: _254  and  _255
REMARK  104  A    between atoms: _254  and  _257
REMARK  105  A    between atoms: _257  and  _258
REMARK  106  A    between atoms: _263  and  _265
REMARK  107  A    between atoms: _265  and  _266
REMARK  108  A    between atoms: _265  and  _268
REMARK  109  A    between atoms: _268  and  _269
REMARK  110  A    between atoms: _269  and  _270
REMARK  111  A    between atoms: _270  and  _271
REMARK  112  A    between atoms: _281  and  _282
REMARK  113  A    between atoms: _287  and  _289
REMARK  114  A    between atoms: _289  and  _290
REMARK  115  A    between atoms: _289  and  _292
REMARK  116  A    between atoms: _292  and  _293
REMARK  117  A    between atoms: _298  and  _300
REMARK  118  A    between atoms: _300  and  _301
REMARK  119  A    between atoms: _300  and  _303
REMARK  120  A    between atoms: _303  and  _304
REMARK  121  A    between atoms: _308  and  _309
REMARK  122  A    between atoms: _314  and  _316
REMARK  123  A    between atoms: _316  and  _317
REMARK  124  A    between atoms: _316  and  _319
REMARK  125  A    between atoms: _319  and  _320
REMARK  126  A    between atoms: _322  and  _324
REMARK  127  A    between atoms: _324  and  _325
REMARK  128  A    between atoms: _324  and  _327
REMARK  129  A    between atoms: _327  and  _328
REMARK  130  A    between atoms: _331  and  _333
REMARK  131  A    between atoms: _333  and  _334
REMARK  132  A    between atoms: _333  and  _336
REMARK  133  A    between atoms: _336  and  _337
REMARK  134  A    between atoms: _337  and  _338
REMARK  135  A    between atoms: _338  and  _339
REMARK  136  A    between atoms: _348  and  _350
REMARK  137  A    between atoms: _350  and  _351
REMARK  138  A    between atoms: _350  and  _353
REMARK  139  A    between atoms: _353  and  _354
REMARK  140  A    between atoms: _360  and  _362
REMARK  141  A    between atoms: _362  and  _363
REMARK  142  A    between atoms: _362  and  _365
REMARK  143  A    between atoms: _365  and  _366
REMARK  144  A    between atoms: _368  and  _370
REMARK  145  A    between atoms: _370  and  _371
REMARK  146  A    between atoms: _374  and  _376
REMARK  147  A    between atoms: _376  and  _377
REMARK  148  A    between atoms: _376  and  _379
REMARK  149  A    between atoms: _379  and  _380
REMARK  150  A    between atoms: _385  and  _386
REMARK  151  A    between atoms: _388  and  _390
REMARK  152  A    between atoms: _390  and  _391
REMARK  153  A    between atoms: _390  and  _393
REMARK  154  A    between atoms: _393  and  _394
REMARK  155  A    between atoms: _394  and  _395
REMARK  156  A    between atoms: _397  and  _399
REMARK  157  A    between atoms: _399  and  _400
REMARK  158  A    between atoms: _399  and  _402
REMARK  159  A    between atoms: _402  and  _403
REMARK  160  A    between atoms: _408  and  _409
REMARK  161  A    between atoms: _411  and  _413
REMARK  162  A    between atoms: _413  and  _414
REMARK  163  A    between atoms: _413  and  _416
REMARK  164  A    between atoms: _416  and  _417
REMARK  165  A    between atoms: _420  and  _422
REMARK  166  A    between atoms: _422  and  _423
REMARK  167  A    between atoms: _422  and  _425
REMARK  168  A    between atoms: _425  and  _426
REMARK  169  A    between atoms: _426  and  _427
REMARK  170  A    between atoms: _429  and  _431
REMARK  171  A    between atoms: _431  and  _432
REMARK  172  A    between atoms: _431  and  _434
REMARK  173  A    between atoms: _434  and  _435
REMARK  174  A    between atoms: _439  and  _440
REMARK  175  A    between atoms: _445  and  _447
REMARK  176  A    between atoms: _447  and  _448
REMARK  177  A    between atoms: _447  and  _450
REMARK  178  A    between atoms: _450  and  _451
REMARK  179  A    between atoms: _455  and  _456
REMARK  180  A    between atoms: _461  and  _463
REMARK  181  A    between atoms: _463  and  _464
REMARK  182  A    between atoms: _463  and  _466
REMARK  183  A    between atoms: _466  and  _467
REMARK  184  A    between atoms: _470  and  _472
REMARK  185  A    between atoms: _472  and  _473
REMARK  186  A    between atoms: _472  and  _475
REMARK  187  A    between atoms: _475  and  _476
REMARK  188  A    between atoms: _479  and  _481
REMARK  189  A    between atoms: _481  and  _482
REMARK  190  A    between atoms: _481  and  _484
REMARK  191  A    between atoms: _484  and  _485
REMARK  192  A    between atoms: _487  and  _489
REMARK  193  A    between atoms: _489  and  _490
REMARK  194  A    between atoms: _492  and  _494
REMARK  195  A    between atoms: _494  and  _495
REMARK  196  A    between atoms: _494  and  _497
REMARK  197  A    between atoms: _497  and  _498
REMARK  198  A    between atoms: _503  and  _504
REMARK  199  A    between atoms: _506  and  _508
REMARK  200  A    between atoms: _508  and  _509
REMARK  201  A    between atoms: _508  and  _511
REMARK  202  A    between atoms: _511  and  _512
REMARK  203  A    between atoms: _515  and  _517
REMARK  204  A    between atoms: _517  and  _518
REMARK  205  A    between atoms: _517  and  _520
REMARK  206  A    between atoms: _520  and  _521
REMARK  207  A    between atoms: _524  and  _526
REMARK  208  A    between atoms: _526  and  _527
REMARK  209  A    between atoms: _529  and  _531
REMARK  210  A    between atoms: _531  and  _532
REMARK  211  A    between atoms: _531  and  _534
REMARK  212  A    between atoms: _534  and  _535
REMARK  213  A    between atoms: _535  and  _536
REMARK  214  A    between atoms: _541  and  _543
REMARK  215  A    between atoms: _543  and  _544
REMARK  216  A    between atoms: _543  and  _546
REMARK  217  A    between atoms: _546  and  _547
REMARK  218  A    between atoms: _550  and  _552
REMARK  219  A    between atoms: _552  and  _553
REMARK  220  A    between atoms: _552  and  _555
REMARK  221  A    between atoms: _558  and  _560
REMARK  222  A    between atoms: _560  and  _561
REMARK  223  A    between atoms: _560  and  _563
REMARK  224  A    between atoms: _566  and  _568
REMARK  225  A    between atoms: _568  and  _569
REMARK  226  A    between atoms: _572  and  _574
REMARK  227  A    between atoms: _574  and  _575
REMARK  228  A    between atoms: _574  and  _577
REMARK  229  A    between atoms: _577  and  _578
REMARK  230  A    between atoms: _578  and  _579
REMARK  231  A    between atoms: _579  and  _580
REMARK  232  A    between atoms: _589  and  _591
REMARK  233  A    between atoms: _591  and  _592
REMARK  234  A    between atoms: _591  and  _594
REMARK  235  A    between atoms: _594  and  _595
REMARK  236  A    between atoms: _600  and  _602
REMARK  237  A    between atoms: _602  and  _603
REMARK  238  A    between atoms: _602  and  _605
REMARK  239  A    between atoms: _605  and  _606
REMARK  240  A    between atoms: _610  and  _611
REMARK  241  A    between atoms: _616  and  _618
REMARK  242  A    between atoms: _618  and  _619
REMARK  243  A    between atoms: _618  and  _621
REMARK  244  A    between atoms: _621  and  _622
REMARK  245  A    between atoms: _624  and  _626
REMARK  246  A    between atoms: _626  and  _627
REMARK  247  A    between atoms: _626  and  _629
REMARK  248  A    between atoms: _629  and  _630
REMARK  249  A    between atoms: _633  and  _635
REMARK  250  A    between atoms: _635  and  _636
REMARK  251  A    between atoms: _635  and  _638
REMARK  252  A    between atoms: _638  and  _639
REMARK  253  A    between atoms: _639  and  _640
REMARK  254  A    between atoms: _640  and  _641
REMARK                            x       y       z     vdW  Elec       q    Type
REMARK                         _______ _______ _______ _____ _____    ______ ____
ROOT
ATOM      1  O   HOH     1     -28.671  -9.661  35.658  0.00  0.00    +0.000 OA
ENDROOT
TORSDOF 0
REMARK  Name = ../refined-set-2016/3b2q/3b2q_pocket.pdb
REMARK  254 active torsions:
REMARK  status: ('A' for Active; 'I' for Inactive)
REMARK    1  A    between atoms: _2  and  _3
REMARK    2  A    between atoms: _8  and  _10
REMARK    3  A    between atoms: _10  and  _11
REMARK    4  A    between atoms: _10  and  _13
REMARK    5  A    between atoms: _13  and  _14
REMARK    6  A    between atoms: _17  and  _19
REMARK    7  A    between atoms: _19  and  _20
REMARK    8  A    between atoms: _19  and  _22
REMARK    9  A    between atoms: _22  and  _23
REMARK   10  A    between atoms: _29  and  _31
REMARK   11  A    between atoms: _31  and  _32
REMARK   12  A    between atoms: _31  and  _34
REMARK   13  A    between atoms: _34  and  _35
REMARK   14  A    between atoms: _37  and  _39
REMARK   15  A    between atoms: _39  and  _40
REMARK   16  A    between atoms: _43  and  _45
REMARK   17  A    between atoms: _45  and  _46
REMARK   18  A    between atoms: _45  and  _48
REMARK   19  A    between atoms: _48  and  _49
REMARK   20  A    between atoms: _51  and  _53
REMARK   21  A    between atoms: _53  and  _54
REMARK   22  A    between atoms: _56  and  _58
REMARK   23  A    between atoms: _58  and  _59
REMARK   24  A    between atoms: _58  and  _61
REMARK   25  A    between atoms: _61  and  _62
REMARK   26  A    between atoms: _65  and  _67
REMARK   27  A    between atoms: _67  and  _68
REMARK   28  A    between atoms: _67  and  _70
REMARK   29  A    between atoms: _70  and  _71
REMARK   30  A    between atoms: _74  and  _76
REMARK   31  A    between atoms: _76  and  _77
REMARK   32  A    between atoms: _76  and  _79
REMARK   33  A    between atoms: _79  and  _80
REMARK   34  A    between atoms: _82  and  _84
REMARK   35  A    between atoms: _84  and  _85
REMARK   36  A    between atoms: _84  and  _87
REMARK   37  A    between atoms: _87  and  _88
REMARK   38  A    between atoms: _88  and  _89
REMARK   39  A    between atoms: _92  and  _93
REMARK   40  A    between atoms: _99  and  _100
REMARK   41  A    between atoms: _105  and  _107
REMARK   42  A    between atoms: _107  and  _108
REMARK   43  A    between atoms: _107  and  _110
REMARK   44  A    between atoms: _110  and  _111
REMARK   45  A    between atoms: _114  and  _116
REMARK   46  A    between atoms: _116  and  _117
REMARK   47  A    between atoms: _116  and  _119
REMARK   48  A    between atoms: _119  and  _120
REMARK   49  A    between atoms: _123  and  _125
REMARK   50  A    between atoms: _125  and  _126
REMARK   51  A    between atoms: _125  and  _128
REMARK   52  A    between atoms: _128  and  _129
REMARK   53  A    between atoms: _131  and  _133
REMARK   54  A    between atoms: _133  and  _134
REMARK   55  A    between atoms: _136  and  _138
REMARK   56  A    between atoms: _138  and  _139
REMARK   57  A    between atoms: _138  and  _141
REMARK   58  A    between atoms: _141  and  _142
REMARK   59  A    between atoms: _147  and  _148
REMARK   60  A    between atoms: _150  and  _152
REMARK   61  A    between atoms: _152  and  _153
REMARK   62  A    between atoms: _152  and  _155
REMARK   63  A    between atoms: _155  and  _156
REMARK   64  A    between atoms: _159  and  _161
REMARK   65  A    between atoms: _161  and  _162
REMARK   66  A    between atoms: _161  and  _164
REMARK   67  A    between atoms: _164  and  _165
REMARK   68  A    between atoms: _168  and  _170
REMARK   69  A    between atoms: _170  and  _171
REMARK   70  A    between atoms: _173  and  _175
REMARK   71  A    between atoms: _175  and  _176
REMARK   72  A    between atoms: _175  and  _178
REMARK   73  A    between atoms: _178  and  _179
REMARK   74  A    between atoms: _179  and  _180
REMARK   75  A    between atoms: _185  and  _187
REMARK   76  A    between atoms: _187  and  _188
REMARK   77  A    between atoms: _187  and  _190
REMARK   78  A    between atoms: _190  and  _191
REMARK   79  A    between atoms: _194  and  _196
REMARK   80  A    between atoms: _196  and  _197
REMARK   81  A    between atoms: _196  and  _199
REMARK   82  A    between atoms: _202  and  _204
REMARK   83  A    between atoms: _204  and  _205
REMARK   84  A    between atoms: _204  and  _207
REMARK   85  A    between atoms: _210  and  _212
REMARK   86  A    between atoms: _212  and  _213
REMARK   87  A    between atoms: _216  and  _218
REMARK   88  A    between atoms: _218  and  _219
REMARK   89  A    between atoms: _218  and  _221
REMARK   90  A    between atoms: _221  and  _222
REMARK   91  A    between atoms: _222  and  _223
REMARK   92  A    between atoms: _223  and  _224
REMARK   93  A    between atoms: _233  and  _235
REMARK   94  A    between atoms: _235  and  _236
REMARK   95  A    between atoms: _235  and  _238
REMARK   96  A    between atoms: _238  and  _239
REMARK   97  A    between atoms: _239  and  _240
REMARK   98  A    between atoms: _243  and  _245
REMARK   99  A    between atoms: _245  and  _246
REMARK  100  A    between atoms: _245  and  _248
REMARK  101  A    between atoms: _248  and  _249
REMARK  102  A    between atoms: _252  and  _254
REMARK  103  A    between atoms: _254  and  _255
REMARK  104  A    between atoms: _254  and  _257
REMARK  105  A    between atoms: _257  and  _258
REMARK  106  A    between atoms: _263  and  _265
REMARK  107  A    between atoms: _265  and  _266
REMARK  108  A    between atoms: _265  and  _268
REMARK  109  A    between atoms: _268  and  _269
REMARK  110  A    between atoms: _269  and  _270
REMARK  111  A    between atoms: _270  and  _271
REMARK  112  A    between atoms: _281  and  _282
REMARK  113  A    between atoms: _287  and  _289
REMARK  114  A    between atoms: _289  and  _290
REMARK  115  A    between atoms: _289  and  _292
REMARK  116  A    between atoms: _292  and  _293
REMARK  117  A    between atoms: _298  and  _300
REMARK  118  A    between atoms: _300  and  _301
REMARK  119  A    between atoms: _300  and  _303
REMARK  120  A    between atoms: _303  and  _304
REMARK  121  A    between atoms: _308  and  _309
REMARK  122  A    between atoms: _314  and  _316
REMARK  123  A    between atoms: _316  and  _317
REMARK  124  A    between atoms: _316  and  _319
REMARK  125  A    between atoms: _319  and  _320
REMARK  126  A    between atoms: _322  and  _324
REMARK  127  A    between atoms: _324  and  _325
REMARK  128  A    between atoms: _324  and  _327
REMARK  129  A    between atoms: _327  and  _328
REMARK  130  A    between atoms: _331  and  _333
REMARK  131  A    between atoms: _333  and  _334
REMARK  132  A    between atoms: _333  and  _336
REMARK  133  A    between atoms: _336  and  _337
REMARK  134  A    between atoms: _337  and  _338
REMARK  135  A    between atoms: _338  and  _339
REMARK  136  A    between atoms: _348  and  _350
REMARK  137  A    between atoms: _350  and  _351
REMARK  138  A    between atoms: _350  and  _353
REMARK  139  A    between atoms: _353  and  _354
REMARK  140  A    between atoms: _360  and  _362
REMARK  141  A    between atoms: _362  and  _363
REMARK  142  A    between atoms: _362  and  _365
REMARK  143  A    between atoms: _365  and  _366
REMARK  144  A    between atoms: _368  and  _370
REMARK  145  A    between atoms: _370  and  _371
REMARK  146  A    between atoms: _374  and  _376
REMARK  147  A    between atoms: _376  and  _377
REMARK  148  A    between atoms: _376  and  _379
REMARK  149  A    between atoms: _379  and  _380
REMARK  150  A    between atoms: _385  and  _386
REMARK  151  A    between atoms: _388  and  _390
REMARK  152  A    between atoms: _390  and  _391
REMARK  153  A    between atoms: _390  and  _393
REMARK  154  A    between atoms: _393  and  _394
REMARK  155  A    between atoms: _394  and  _395
REMARK  156  A    between atoms: _397  and  _399
REMARK  157  A    between atoms: _399  and  _400
REMARK  158  A    between atoms: _399  and  _402
REMARK  159  A    between atoms: _402  and  _403
REMARK  160  A    between atoms: _408  and  _409
REMARK  161  A    between atoms: _411  and  _413
REMARK  162  A    between atoms: _413  and  _414
REMARK  163  A    between atoms: _413  and  _416
REMARK  164  A    between atoms: _416  and  _417
REMARK  165  A    between atoms: _420  and  _422
REMARK  166  A    between atoms: _422  and  _423
REMARK  167  A    between atoms: _422  and  _425
REMARK  168  A    between atoms: _425  and  _426
REMARK  169  A    between atoms: _426  and  _427
REMARK  170  A    between atoms: _429  and  _431
REMARK  171  A    between atoms: _431  and  _432
REMARK  172  A    between atoms: _431  and  _434
REMARK  173  A    between atoms: _434  and  _435
REMARK  174  A    between atoms: _439  and  _440
REMARK  175  A    between atoms: _445  and  _447
REMARK  176  A    between atoms: _447  and  _448
REMARK  177  A    between atoms: _447  and  _450
REMARK  178  A    between atoms: _450  and  _451
REMARK  179  A    between atoms: _455  and  _456
REMARK  180  A    between atoms: _461  and  _463
REMARK  181  A    between atoms: _463  and  _464
REMARK  182  A    between atoms: _463  and  _466
REMARK  183  A    between atoms: _466  and  _467
REMARK  184  A    between atoms: _470  and  _472
REMARK  185  A    between atoms: _472  and  _473
REMARK  186  A    between atoms: _472  and  _475
REMARK  187  A    between atoms: _475  and  _476
REMARK  188  A    between atoms: _479  and  _481
REMARK  189  A    between atoms: _481  and  _482
REMARK  190  A    between atoms: _481  and  _484
REMARK  191  A    between atoms: _484  and  _485
REMARK  192  A    between atoms: _487  and  _489
REMARK  193  A    between atoms: _489  and  _490
REMARK  194  A    between atoms: _492  and  _494
REMARK  195  A    between atoms: _494  and  _495
REMARK  196  A    between atoms: _494  and  _497
REMARK  197  A    between atoms: _497  and  _498
REMARK  198  A    between atoms: _503  and  _504
REMARK  199  A    between atoms: _506  and  _508
REMARK  200  A    between atoms: _508  and  _509
REMARK  201  A    between atoms: _508  and  _511
REMARK  202  A    between atoms: _511  and  _512
REMARK  203  A    between atoms: _515  and  _517
REMARK  204  A    between atoms: _517  and  _518
REMARK  205  A    between atoms: _517  and  _520
REMARK  206  A    between atoms: _520  and  _521
REMARK  207  A    between atoms: _524  and  _526
REMARK  208  A    between atoms: _526  and  _527
REMARK  209  A    between atoms: _529  and  _531
REMARK  210  A    between atoms: _531  and  _532
REMARK  211  A    between atoms: _531  and  _534
REMARK  212  A    between atoms: _534  and  _535
REMARK  213  A    between atoms: _535  and  _536
REMARK  214  A    between atoms: _541  and  _543
REMARK  215  A    between atoms: _543  and  _544
REMARK  216  A    between atoms: _543  and  _546
REMARK  217  A    between atoms: _546  and  _547
REMARK  218  A    between atoms: _550  and  _552
REMARK  219  A    between atoms: _552  and  _553
REMARK  220  A    between atoms: _552  and  _555
REMARK  221  A    between atoms: _558  and  _560
REMARK  222  A    between atoms: _560  and  _561
REMARK  223  A    between atoms: _560  and  _563
REMARK  224  A    between atoms: _566  and  _568
REMARK  225  A    between atoms: _568  and  _569
REMARK  226  A    between atoms: _572  and  _574
REMARK  227  A    between atoms: _574  and  _575
REMARK  228  A    between atoms: _574  and  _577
REMARK  229  A    between atoms: _577  and  _578
REMARK  230  A    between atoms: _578  and  _579
REMARK  231  A    between atoms: _579  and  _580
REMARK  232  A    between atoms: _589  and  _591
REMARK  233  A    between atoms: _591  and  _592
REMARK  234  A    between atoms: _591  and  _594
REMARK  235  A    between atoms: _594  and  _595
REMARK  236  A    between atoms: _600  and  _602
REMARK  237  A    between atoms: _602  and  _603
REMARK  238  A    between atoms: _602  and  _605
REMARK  239  A    between atoms: _605  and  _606
REMARK  240  A    between atoms: _610  and  _611
REMARK  241  A    between atoms: _616  and  _618
REMARK  242  A    between atoms: _618  and  _619
REMARK  243  A    between atoms: _618  and  _621
REMARK  244  A    between atoms: _621  and  _622
REMARK  245  A    between atoms: _624  and  _626
REMARK  246  A    between atoms: _626  and  _627
REMARK  247  A    between atoms: _626  and  _629
REMARK  248  A    between atoms: _629  and  _630
REMARK  249  A    between atoms: _633  and  _635
REMARK  250  A    between atoms: _635  and  _636
REMARK  251  A    between atoms: _635  and  _638
REMARK  252  A    between atoms: _638  and  _639
REMARK  253  A    between atoms: _639  and  _640
REMARK  254  A    between atoms: _640  and  _641
REMARK                            x       y       z     vdW  Elec       q    Type
REMARK                         _______ _______ _______ _____ _____    ______ ____
ROOT
ATOM      1  O   HOH     1     -25.885  -5.193  33.528  0.00  0.00    +0.000 OA
ENDROOT
TORSDOF 0
REMARK  Name = ../refined-set-2016/3b2q/3b2q_pocket.pdb
REMARK  254 active torsions:
REMARK  status: ('A' for Active; 'I' for Inactive)
REMARK    1  A    between atoms: _2  and  _3
REMARK    2  A    between atoms: _8  and  _10
REMARK    3  A    between atoms: _10  and  _11
REMARK    4  A    between atoms: _10  and  _13
REMARK    5  A    between atoms: _13  and  _14
REMARK    6  A    between atoms: _17  and  _19
REMARK    7  A    between atoms: _19  and  _20
REMARK    8  A    between atoms: _19  and  _22
REMARK    9  A    between atoms: _22  and  _23
REMARK   10  A    between atoms: _29  and  _31
REMARK   11  A    between atoms: _31  and  _32
REMARK   12  A    between atoms: _31  and  _34
REMARK   13  A    between atoms: _34  and  _35
REMARK   14  A    between atoms: _37  and  _39
REMARK   15  A    between atoms: _39  and  _40
REMARK   16  A    between atoms: _43  and  _45
REMARK   17  A    between atoms: _45  and  _46
REMARK   18  A    between atoms: _45  and  _48
REMARK   19  A    between atoms: _48  and  _49
REMARK   20  A    between atoms: _51  and  _53
REMARK   21  A    between atoms: _53  and  _54
REMARK   22  A    between atoms: _56  and  _58
REMARK   23  A    between atoms: _58  and  _59
REMARK   24  A    between atoms: _58  and  _61
REMARK   25  A    between atoms: _61  and  _62
REMARK   26  A    between atoms: _65  and  _67
REMARK   27  A    between atoms: _67  and  _68
REMARK   28  A    between atoms: _67  and  _70
REMARK   29  A    between atoms: _70  and  _71
REMARK   30  A    between atoms: _74  and  _76
REMARK   31  A    between atoms: _76  and  _77
REMARK   32  A    between atoms: _76  and  _79
REMARK   33  A    between atoms: _79  and  _80
REMARK   34  A    between atoms: _82  and  _84
REMARK   35  A    between atoms: _84  and  _85
REMARK   36  A    between atoms: _84  and  _87
REMARK   37  A    between atoms: _87  and  _88
REMARK   38  A    between atoms: _88  and  _89
REMARK   39  A    between atoms: _92  and  _93
REMARK   40  A    between atoms: _99  and  _100
REMARK   41  A    between atoms: _105  and  _107
REMARK   42  A    between atoms: _107  and  _108
REMARK   43  A    between atoms: _107  and  _110
REMARK   44  A    between atoms: _110  and  _111
REMARK   45  A    between atoms: _114  and  _116
REMARK   46  A    between atoms: _116  and  _117
REMARK   47  A    between atoms: _116  and  _119
REMARK   48  A    between atoms: _119  and  _120
REMARK   49  A    between atoms: _123  and  _125
REMARK   50  A    between atoms: _125  and  _126
REMARK   51  A    between atoms: _125  and  _128
REMARK   52  A    between atoms: _128  and  _129
REMARK   53  A    between atoms: _131  and  _133
REMARK   54  A    between atoms: _133  and  _134
REMARK   55  A    between atoms: _136  and  _138
REMARK   56  A    between atoms: _138  and  _139
REMARK   57  A    between atoms: _138  and  _141
REMARK   58  A    between atoms: _141  and  _142
REMARK   59  A    between atoms: _147  and  _148
REMARK   60  A    between atoms: _150  and  _152
REMARK   61  A    between atoms: _152  and  _153
REMARK   62  A    between atoms: _152  and  _155
REMARK   63  A    between atoms: _155  and  _156
REMARK   64  A    between atoms: _159  and  _161
REMARK   65  A    between atoms: _161  and  _162
REMARK   66  A    between atoms: _161  and  _164
REMARK   67  A    between atoms: _164  and  _165
REMARK   68  A    between atoms: _168  and  _170
REMARK   69  A    between atoms: _170  and  _171
REMARK   70  A    between atoms: _173  and  _175
REMARK   71  A    between atoms: _175  and  _176
REMARK   72  A    between atoms: _175  and  _178
REMARK   73  A    between atoms: _178  and  _179
REMARK   74  A    between atoms: _179  and  _180
REMARK   75  A    between atoms: _185  and  _187
REMARK   76  A    between atoms: _187  and  _188
REMARK   77  A    between atoms: _187  and  _190
REMARK   78  A    between atoms: _190  and  _191
REMARK   79  A    between atoms: _194  and  _196
REMARK   80  A    between atoms: _196  and  _197
REMARK   81  A    between atoms: _196  and  _199
REMARK   82  A    between atoms: _202  and  _204
REMARK   83  A    between atoms: _204  and  _205
REMARK   84  A    between atoms: _204  and  _207
REMARK   85  A    between atoms: _210  and  _212
REMARK   86  A    between atoms: _212  and  _213
REMARK   87  A    between atoms: _216  and  _218
REMARK   88  A    between atoms: _218  and  _219
REMARK   89  A    between atoms: _218  and  _221
REMARK   90  A    between atoms: _221  and  _222
REMARK   91  A    between atoms: _222  and  _223
REMARK   92  A    between atoms: _223  and  _224
REMARK   93  A    between atoms: _233  and  _235
REMARK   94  A    between atoms: _235  and  _236
REMARK   95  A    between atoms: _235  and  _238
REMARK   96  A    between atoms: _238  and  _239
REMARK   97  A    between atoms: _239  and  _240
REMARK   98  A    between atoms: _243  and  _245
REMARK   99  A    between atoms: _245  and  _246
REMARK  100  A    between atoms: _245  and  _248
REMARK  101  A    between atoms: _248  and  _249
REMARK  102  A    between atoms: _252  and  _254
REMARK  103  A    between atoms: _254  and  _255
REMARK  104  A    between atoms: _254  and  _257
REMARK  105  A    between atoms: _257  and  _258
REMARK  106  A    between atoms: _263  and  _265
REMARK  107  A    between atoms: _265  and  _266
REMARK  108  A    between atoms: _265  and  _268
REMARK  109  A    between atoms: _268  and  _269
REMARK  110  A    between atoms: _269  and  _270
REMARK  111  A    between atoms: _270  and  _271
REMARK  112  A    between atoms: _281  and  _282
REMARK  113  A    between atoms: _287  and  _289
REMARK  114  A    between atoms: _289  and  _290
REMARK  115  A    between atoms: _289  and  _292
REMARK  116  A    between atoms: _292  and  _293
REMARK  117  A    between atoms: _298  and  _300
REMARK  118  A    between atoms: _300  and  _301
REMARK  119  A    between atoms: _300  and  _303
REMARK  120  A    between atoms: _303  and  _304
REMARK  121  A    between atoms: _308  and  _309
REMARK  122  A    between atoms: _314  and  _316
REMARK  123  A    between atoms: _316  and  _317
REMARK  124  A    between atoms: _316  and  _319
REMARK  125  A    between atoms: _319  and  _320
REMARK  126  A    between atoms: _322  and  _324
REMARK  127  A    between atoms: _324  and  _325
REMARK  128  A    between atoms: _324  and  _327
REMARK  129  A    between atoms: _327  and  _328
REMARK  130  A    between atoms: _331  and  _333
REMARK  131  A    between atoms: _333  and  _334
REMARK  132  A    between atoms: _333  and  _336
REMARK  133  A    between atoms: _336  and  _337
REMARK  134  A    between atoms: _337  and  _338
REMARK  135  A    between atoms: _338  and  _339
REMARK  136  A    between atoms: _348  and  _350
REMARK  137  A    between atoms: _350  and  _351
REMARK  138  A    between atoms: _350  and  _353
REMARK  139  A    between atoms: _353  and  _354
REMARK  140  A    between atoms: _360  and  _362
REMARK  141  A    between atoms: _362  and  _363
REMARK  142  A    between atoms: _362  and  _365
REMARK  143  A    between atoms: _365  and  _366
REMARK  144  A    between atoms: _368  and  _370
REMARK  145  A    between atoms: _370  and  _371
REMARK  146  A    between atoms: _374  and  _376
REMARK  147  A    between atoms: _376  and  _377
REMARK  148  A    between atoms: _376  and  _379
REMARK  149  A    between atoms: _379  and  _380
REMARK  150  A    between atoms: _385  and  _386
REMARK  151  A    between atoms: _388  and  _390
REMARK  152  A    between atoms: _390  and  _391
REMARK  153  A    between atoms: _390  and  _393
REMARK  154  A    between atoms: _393  and  _394
REMARK  155  A    between atoms: _394  and  _395
REMARK  156  A    between atoms: _397  and  _399
REMARK  157  A    between atoms: _399  and  _400
REMARK  158  A    between atoms: _399  and  _402
REMARK  159  A    between atoms: _402  and  _403
REMARK  160  A    between atoms: _408  and  _409
REMARK  161  A    between atoms: _411  and  _413
REMARK  162  A    between atoms: _413  and  _414
REMARK  163  A    between atoms: _413  and  _416
REMARK  164  A    between atoms: _416  and  _417
REMARK  165  A    between atoms: _420  and  _422
REMARK  166  A    between atoms: _422  and  _423
REMARK  167  A    between atoms: _422  and  _425
REMARK  168  A    between atoms: _425  and  _426
REMARK  169  A    between atoms: _426  and  _427
REMARK  170  A    between atoms: _429  and  _431
REMARK  171  A    between atoms: _431  and  _432
REMARK  172  A    between atoms: _431  and  _434
REMARK  173  A    between atoms: _434  and  _435
REMARK  174  A    between atoms: _439  and  _440
REMARK  175  A    between atoms: _445  and  _447
REMARK  176  A    between atoms: _447  and  _448
REMARK  177  A    between atoms: _447  and  _450
REMARK  178  A    between atoms: _450  and  _451
REMARK  179  A    between atoms: _455  and  _456
REMARK  180  A    between atoms: _461  and  _463
REMARK  181  A    between atoms: _463  and  _464
REMARK  182  A    between atoms: _463  and  _466
REMARK  183  A    between atoms: _466  and  _467
REMARK  184  A    between atoms: _470  and  _472
REMARK  185  A    between atoms: _472  and  _473
REMARK  186  A    between atoms: _472  and  _475
REMARK  187  A    between atoms: _475  and  _476
REMARK  188  A    between atoms: _479  and  _481
REMARK  189  A    between atoms: _481  and  _482
REMARK  190  A    between atoms: _481  and  _484
REMARK  191  A    between atoms: _484  and  _485
REMARK  192  A    between atoms: _487  and  _489
REMARK  193  A    between atoms: _489  and  _490
REMARK  194  A    between atoms: _492  and  _494
REMARK  195  A    between atoms: _494  and  _495
REMARK  196  A    between atoms: _494  and  _497
REMARK  197  A    between atoms: _497  and  _498
REMARK  198  A    between atoms: _503  and  _504
REMARK  199  A    between atoms: _506  and  _508
REMARK  200  A    between atoms: _508  and  _509
REMARK  201  A    between atoms: _508  and  _511
REMARK  202  A    between atoms: _511  and  _512
REMARK  203  A    between atoms: _515  and  _517
REMARK  204  A    between atoms: _517  and  _518
REMARK  205  A    between atoms: _517  and  _520
REMARK  206  A    between atoms: _520  and  _521
REMARK  207  A    between atoms: _524  and  _526
REMARK  208  A    between atoms: _526  and  _527
REMARK  209  A    between atoms: _529  and  _531
REMARK  210  A    between atoms: _531  and  _532
REMARK  211  A    between atoms: _531  and  _534
REMARK  212  A    between atoms: _534  and  _535
REMARK  213  A    between atoms: _535  and  _536
REMARK  214  A    between atoms: _541  and  _543
REMARK  215  A    between atoms: _543  and  _544
REMARK  216  A    between atoms: _543  and  _546
REMARK  217  A    between atoms: _546  and  _547
REMARK  218  A    between atoms: _550  and  _552
REMARK  219  A    between atoms: _552  and  _553
REMARK  220  A    between atoms: _552  and  _555
REMARK  221  A    between atoms: _558  and  _560
REMARK  222  A    between atoms: _560  and  _561
REMARK  223  A    between atoms: _560  and  _563
REMARK  224  A    between atoms: _566  and  _568
REMARK  225  A    between atoms: _568  and  _569
REMARK  226  A    between atoms: _572  and  _574
REMARK  227  A    between atoms: _574  and  _575
REMARK  228  A    between atoms: _574  and  _577
REMARK  229  A    between atoms: _577  and  _578
REMARK  230  A    between atoms: _578  and  _579
REMARK  231  A    between atoms: _579  and  _580
REMARK  232  A    between atoms: _589  and  _591
REMARK  233  A    between atoms: _591  and  _592
REMARK  234  A    between atoms: _591  and  _594
REMARK  235  A    between atoms: _594  and  _595
REMARK  236  A    between atoms: _600  and  _602
REMARK  237  A    between atoms: _602  and  _603
REMARK  238  A    between atoms: _602  and  _605
REMARK  239  A    between atoms: _605  and  _606
REMARK  240  A    between atoms: _610  and  _611
REMARK  241  A    between atoms: _616  and  _618
REMARK  242  A    between atoms: _618  and  _619
REMARK  243  A    between atoms: _618  and  _621
REMARK  244  A    between atoms: _621  and  _622
REMARK  245  A    between atoms: _624  and  _626
REMARK  246  A    between atoms: _626  and  _627
REMARK  247  A    between atoms: _626  and  _629
REMARK  248  A    between atoms: _629  and  _630
REMARK  249  A    between atoms: _633  and  _635
REMARK  250  A    between atoms: _635  and  _636
REMARK  251  A    between atoms: _635  and  _638
REMARK  252  A    between atoms: _638  and  _639
REMARK  253  A    between atoms: _639  and  _640
REMARK  254  A    between atoms: _640  and  _641
REMARK                            x       y       z     vdW  Elec       q    Type
REMARK                         _______ _______ _______ _____ _____    ______ ____
ROOT
ATOM      1  O   HOH     1     -23.068 -25.483  15.299  0.00  0.00    +0.000 OA
ENDROOT
TORSDOF 0
REMARK  Name = ../refined-set-2016/3b2q/3b2q_pocket.pdb
REMARK  254 active torsions:
REMARK  status: ('A' for Active; 'I' for Inactive)
REMARK    1  A    between atoms: _2  and  _3
REMARK    2  A    between atoms: _8  and  _10
REMARK    3  A    between atoms: _10  and  _11
REMARK    4  A    between atoms: _10  and  _13
REMARK    5  A    between atoms: _13  and  _14
REMARK    6  A    between atoms: _17  and  _19
REMARK    7  A    between atoms: _19  and  _20
REMARK    8  A    between atoms: _19  and  _22
REMARK    9  A    between atoms: _22  and  _23
REMARK   10  A    between atoms: _29  and  _31
REMARK   11  A    between atoms: _31  and  _32
REMARK   12  A    between atoms: _31  and  _34
REMARK   13  A    between atoms: _34  and  _35
REMARK   14  A    between atoms: _37  and  _39
REMARK   15  A    between atoms: _39  and  _40
REMARK   16  A    between atoms: _43  and  _45
REMARK   17  A    between atoms: _45  and  _46
REMARK   18  A    between atoms: _45  and  _48
REMARK   19  A    between atoms: _48  and  _49
REMARK   20  A    between atoms: _51  and  _53
REMARK   21  A    between atoms: _53  and  _54
REMARK   22  A    between atoms: _56  and  _58
REMARK   23  A    between atoms: _58  and  _59
REMARK   24  A    between atoms: _58  and  _61
REMARK   25  A    between atoms: _61  and  _62
REMARK   26  A    between atoms: _65  and  _67
REMARK   27  A    between atoms: _67  and  _68
REMARK   28  A    between atoms: _67  and  _70
REMARK   29  A    between atoms: _70  and  _71
REMARK   30  A    between atoms: _74  and  _76
REMARK   31  A    between atoms: _76  and  _77
REMARK   32  A    between atoms: _76  and  _79
REMARK   33  A    between atoms: _79  and  _80
REMARK   34  A    between atoms: _82  and  _84
REMARK   35  A    between atoms: _84  and  _85
REMARK   36  A    between atoms: _84  and  _87
REMARK   37  A    between atoms: _87  and  _88
REMARK   38  A    between atoms: _88  and  _89
REMARK   39  A    between atoms: _92  and  _93
REMARK   40  A    between atoms: _99  and  _100
REMARK   41  A    between atoms: _105  and  _107
REMARK   42  A    between atoms: _107  and  _108
REMARK   43  A    between atoms: _107  and  _110
REMARK   44  A    between atoms: _110  and  _111
REMARK   45  A    between atoms: _114  and  _116
REMARK   46  A    between atoms: _116  and  _117
REMARK   47  A    between atoms: _116  and  _119
REMARK   48  A    between atoms: _119  and  _120
REMARK   49  A    between atoms: _123  and  _125
REMARK   50  A    between atoms: _125  and  _126
REMARK   51  A    between atoms: _125  and  _128
REMARK   52  A    between atoms: _128  and  _129
REMARK   53  A    between atoms: _131  and  _133
REMARK   54  A    between atoms: _133  and  _134
REMARK   55  A    between atoms: _136  and  _138
REMARK   56  A    between atoms: _138  and  _139
REMARK   57  A    between atoms: _138  and  _141
REMARK   58  A    between atoms: _141  and  _142
REMARK   59  A    between atoms: _147  and  _148
REMARK   60  A    between atoms: _150  and  _152
REMARK   61  A    between atoms: _152  and  _153
REMARK   62  A    between atoms: _152  and  _155
REMARK   63  A    between atoms: _155  and  _156
REMARK   64  A    between atoms: _159  and  _161
REMARK   65  A    between atoms: _161  and  _162
REMARK   66  A    between atoms: _161  and  _164
REMARK   67  A    between atoms: _164  and  _165
REMARK   68  A    between atoms: _168  and  _170
REMARK   69  A    between atoms: _170  and  _171
REMARK   70  A    between atoms: _173  and  _175
REMARK   71  A    between atoms: _175  and  _176
REMARK   72  A    between atoms: _175  and  _178
REMARK   73  A    between atoms: _178  and  _179
REMARK   74  A    between atoms: _179  and  _180
REMARK   75  A    between atoms: _185  and  _187
REMARK   76  A    between atoms: _187  and  _188
REMARK   77  A    between atoms: _187  and  _190
REMARK   78  A    between atoms: _190  and  _191
REMARK   79  A    between atoms: _194  and  _196
REMARK   80  A    between atoms: _196  and  _197
REMARK   81  A    between atoms: _196  and  _199
REMARK   82  A    between atoms: _202  and  _204
REMARK   83  A    between atoms: _204  and  _205
REMARK   84  A    between atoms: _204  and  _207
REMARK   85  A    between atoms: _210  and  _212
REMARK   86  A    between atoms: _212  and  _213
REMARK   87  A    between atoms: _216  and  _218
REMARK   88  A    between atoms: _218  and  _219
REMARK   89  A    between atoms: _218  and  _221
REMARK   90  A    between atoms: _221  and  _222
REMARK   91  A    between atoms: _222  and  _223
REMARK   92  A    between atoms: _223  and  _224
REMARK   93  A    between atoms: _233  and  _235
REMARK   94  A    between atoms: _235  and  _236
REMARK   95  A    between atoms: _235  and  _238
REMARK   96  A    between atoms: _238  and  _239
REMARK   97  A    between atoms: _239  and  _240
REMARK   98  A    between atoms: _243  and  _245
REMARK   99  A    between atoms: _245  and  _246
REMARK  100  A    between atoms: _245  and  _248
REMARK  101  A    between atoms: _248  and  _249
REMARK  102  A    between atoms: _252  and  _254
REMARK  103  A    between atoms: _254  and  _255
REMARK  104  A    between atoms: _254  and  _257
REMARK  105  A    between atoms: _257  and  _258
REMARK  106  A    between atoms: _263  and  _265
REMARK  107  A    between atoms: _265  and  _266
REMARK  108  A    between atoms: _265  and  _268
REMARK  109  A    between atoms: _268  and  _269
REMARK  110  A    between atoms: _269  and  _270
REMARK  111  A    between atoms: _270  and  _271
REMARK  112  A    between atoms: _281  and  _282
REMARK  113  A    between atoms: _287  and  _289
REMARK  114  A    between atoms: _289  and  _290
REMARK  115  A    between atoms: _289  and  _292
REMARK  116  A    between atoms: _292  and  _293
REMARK  117  A    between atoms: _298  and  _300
REMARK  118  A    between atoms: _300  and  _301
REMARK  119  A    between atoms: _300  and  _303
REMARK  120  A    between atoms: _303  and  _304
REMARK  121  A    between atoms: _308  and  _309
REMARK  122  A    between atoms: _314  and  _316
REMARK  123  A    between atoms: _316  and  _317
REMARK  124  A    between atoms: _316  and  _319
REMARK  125  A    between atoms: _319  and  _320
REMARK  126  A    between atoms: _322  and  _324
REMARK  127  A    between atoms: _324  and  _325
REMARK  128  A    between atoms: _324  and  _327
REMARK  129  A    between atoms: _327  and  _328
REMARK  130  A    between atoms: _331  and  _333
REMARK  131  A    between atoms: _333  and  _334
REMARK  132  A    between atoms: _333  and  _336
REMARK  133  A    between atoms: _336  and  _337
REMARK  134  A    between atoms: _337  and  _338
REMARK  135  A    between atoms: _338  and  _339
REMARK  136  A    between atoms: _348  and  _350
REMARK  137  A    between atoms: _350  and  _351
REMARK  138  A    between atoms: _350  and  _353
REMARK  139  A    between atoms: _353  and  _354
REMARK  140  A    between atoms: _360  and  _362
REMARK  141  A    between atoms: _362  and  _363
REMARK  142  A    between atoms: _362  and  _365
REMARK  143  A    between atoms: _365  and  _366
REMARK  144  A    between atoms: _368  and  _370
REMARK  145  A    between atoms: _370  and  _371
REMARK  146  A    between atoms: _374  and  _376
REMARK  147  A    between atoms: _376  and  _377
REMARK  148  A    between atoms: _376  and  _379
REMARK  149  A    between atoms: _379  and  _380
REMARK  150  A    between atoms: _385  and  _386
REMARK  151  A    between atoms: _388  and  _390
REMARK  152  A    between atoms: _390  and  _391
REMARK  153  A    between atoms: _390  and  _393
REMARK  154  A    between atoms: _393  and  _394
REMARK  155  A    between atoms: _394  and  _395
REMARK  156  A    between atoms: _397  and  _399
REMARK  157  A    between atoms: _399  and  _400
REMARK  158  A    between atoms: _399  and  _402
REMARK  159  A    between atoms: _402  and  _403
REMARK  160  A    between atoms: _408  and  _409
REMARK  161  A    between atoms: _411  and  _413
REMARK  162  A    between atoms: _413  and  _414
REMARK  163  A    between atoms: _413  and  _416
REMARK  164  A    between atoms: _416  and  _417
REMARK  165  A    between atoms: _420  and  _422
REMARK  166  A    between atoms: _422  and  _423
REMARK  167  A    between atoms: _422  and  _425
REMARK  168  A    between atoms: _425  and  _426
REMARK  169  A    between atoms: _426  and  _427
REMARK  170  A    between atoms: _429  and  _431
REMARK  171  A    between atoms: _431  and  _432
REMARK  172  A    between atoms: _431  and  _434
REMARK  173  A    between atoms: _434  and  _435
REMARK  174  A    between atoms: _439  and  _440
REMARK  175  A    between atoms: _445  and  _447
REMARK  176  A    between atoms: _447  and  _448
REMARK  177  A    between atoms: _447  and  _450
REMARK  178  A    between atoms: _450  and  _451
REMARK  179  A    between atoms: _455  and  _456
REMARK  180  A    between atoms: _461  and  _463
REMARK  181  A    between atoms: _463  and  _464
REMARK  182  A    between atoms: _463  and  _466
REMARK  183  A    between atoms: _466  and  _467
REMARK  184  A    between atoms: _470  and  _472
REMARK  185  A    between atoms: _472  and  _473
REMARK  186  A    between atoms: _472  and  _475
REMARK  187  A    between atoms: _475  and  _476
REMARK  188  A    between atoms: _479  and  _481
REMARK  189  A    between atoms: _481  and  _482
REMARK  190  A    between atoms: _481  and  _484
REMARK  191  A    between atoms: _484  and  _485
REMARK  192  A    between atoms: _487  and  _489
REMARK  193  A    between atoms: _489  and  _490
REMARK  194  A    between atoms: _492  and  _494
REMARK  195  A    between atoms: _494  and  _495
REMARK  196  A    between atoms: _494  and  _497
REMARK  197  A    between atoms: _497  and  _498
REMARK  198  A    between atoms: _503  and  _504
REMARK  199  A    between atoms: _506  and  _508
REMARK  200  A    between atoms: _508  and  _509
REMARK  201  A    between atoms: _508  and  _511
REMARK  202  A    between atoms: _511  and  _512
REMARK  203  A    between atoms: _515  and  _517
REMARK  204  A    between atoms: _517  and  _518
REMARK  205  A    between atoms: _517  and  _520
REMARK  206  A    between atoms: _520  and  _521
REMARK  207  A    between atoms: _524  and  _526
REMARK  208  A    between atoms: _526  and  _527
REMARK  209  A    between atoms: _529  and  _531
REMARK  210  A    between atoms: _531  and  _532
REMARK  211  A    between atoms: _531  and  _534
REMARK  212  A    between atoms: _534  and  _535
REMARK  213  A    between atoms: _535  and  _536
REMARK  214  A    between atoms: _541  and  _543
REMARK  215  A    between atoms: _543  and  _544
REMARK  216  A    between atoms: _543  and  _546
REMARK  217  A    between atoms: _546  and  _547
REMARK  218  A    between atoms: _550  and  _552
REMARK  219  A    between atoms: _552  and  _553
REMARK  220  A    between atoms: _552  and  _555
REMARK  221  A    between atoms: _558  and  _560
REMARK  222  A    between atoms: _560  and  _561
REMARK  223  A    between atoms: _560  and  _563
REMARK  224  A    between atoms: _566  and  _568
REMARK  225  A    between atoms: _568  and  _569
REMARK  226  A    between atoms: _572  and  _574
REMARK  227  A    between atoms: _574  and  _575
REMARK  228  A    between atoms: _574  and  _577
REMARK  229  A    between atoms: _577  and  _578
REMARK  230  A    between atoms: _578  and  _579
REMARK  231  A    between atoms: _579  and  _580
REMARK  232  A    between atoms: _589  and  _591
REMARK  233  A    between atoms: _591  and  _592
REMARK  234  A    between atoms: _591  and  _594
REMARK  235  A    between atoms: _594  and  _595
REMARK  236  A    between atoms: _600  and  _602
REMARK  237  A    between atoms: _602  and  _603
REMARK  238  A    between atoms: _602  and  _605
REMARK  239  A    between atoms: _605  and  _606
REMARK  240  A    between atoms: _610  and  _611
REMARK  241  A    between atoms: _616  and  _618
REMARK  242  A    between atoms: _618  and  _619
REMARK  243  A    between atoms: _618  and  _621
REMARK  244  A    between atoms: _621  and  _622
REMARK  245  A    between atoms: _624  and  _626
REMARK  246  A    between atoms: _626  and  _627
REMARK  247  A    between atoms: _626  and  _629
REMARK  248  A    between atoms: _629  and  _630
REMARK  249  A    between atoms: _633  and  _635
REMARK  250  A    between atoms: _635  and  _636
REMARK  251  A    between atoms: _635  and  _638
REMARK  252  A    between atoms: _638  and  _639
REMARK  253  A    between atoms: _639  and  _640
REMARK  254  A    between atoms: _640  and  _641
REMARK                            x       y       z     vdW  Elec       q    Type
REMARK                         _______ _______ _______ _____ _____    ______ ____
ROOT
ATOM      1  O   HOH     1     -33.173 -15.152  29.558  0.00  0.00    +0.000 OA
ENDROOT
TORSDOF 0
REMARK  Name = ../refined-set-2016/3b2q/3b2q_pocket.pdb
REMARK  254 active torsions:
REMARK  status: ('A' for Active; 'I' for Inactive)
REMARK    1  A    between atoms: _2  and  _3
REMARK    2  A    between atoms: _8  and  _10
REMARK    3  A    between atoms: _10  and  _11
REMARK    4  A    between atoms: _10  and  _13
REMARK    5  A    between atoms: _13  and  _14
REMARK    6  A    between atoms: _17  and  _19
REMARK    7  A    between atoms: _19  and  _20
REMARK    8  A    between atoms: _19  and  _22
REMARK    9  A    between atoms: _22  and  _23
REMARK   10  A    between atoms: _29  and  _31
REMARK   11  A    between atoms: _31  and  _32
REMARK   12  A    between atoms: _31  and  _34
REMARK   13  A    between atoms: _34  and  _35
REMARK   14  A    between atoms: _37  and  _39
REMARK   15  A    between atoms: _39  and  _40
REMARK   16  A    between atoms: _43  and  _45
REMARK   17  A    between atoms: _45  and  _46
REMARK   18  A    between atoms: _45  and  _48
REMARK   19  A    between atoms: _48  and  _49
REMARK   20  A    between atoms: _51  and  _53
REMARK   21  A    between atoms: _53  and  _54
REMARK   22  A    between atoms: _56  and  _58
REMARK   23  A    between atoms: _58  and  _59
REMARK   24  A    between atoms: _58  and  _61
REMARK   25  A    between atoms: _61  and  _62
REMARK   26  A    between atoms: _65  and  _67
REMARK   27  A    between atoms: _67  and  _68
REMARK   28  A    between atoms: _67  and  _70
REMARK   29  A    between atoms: _70  and  _71
REMARK   30  A    between atoms: _74  and  _76
REMARK   31  A    between atoms: _76  and  _77
REMARK   32  A    between atoms: _76  and  _79
REMARK   33  A    between atoms: _79  and  _80
REMARK   34  A    between atoms: _82  and  _84
REMARK   35  A    between atoms: _84  and  _85
REMARK   36  A    between atoms: _84  and  _87
REMARK   37  A    between atoms: _87  and  _88
REMARK   38  A    between atoms: _88  and  _89
REMARK   39  A    between atoms: _92  and  _93
REMARK   40  A    between atoms: _99  and  _100
REMARK   41  A    between atoms: _105  and  _107
REMARK   42  A    between atoms: _107  and  _108
REMARK   43  A    between atoms: _107  and  _110
REMARK   44  A    between atoms: _110  and  _111
REMARK   45  A    between atoms: _114  and  _116
REMARK   46  A    between atoms: _116  and  _117
REMARK   47  A    between atoms: _116  and  _119
REMARK   48  A    between atoms: _119  and  _120
REMARK   49  A    between atoms: _123  and  _125
REMARK   50  A    between atoms: _125  and  _126
REMARK   51  A    between atoms: _125  and  _128
REMARK   52  A    between atoms: _128  and  _129
REMARK   53  A    between atoms: _131  and  _133
REMARK   54  A    between atoms: _133  and  _134
REMARK   55  A    between atoms: _136  and  _138
REMARK   56  A    between atoms: _138  and  _139
REMARK   57  A    between atoms: _138  and  _141
REMARK   58  A    between atoms: _141  and  _142
REMARK   59  A    between atoms: _147  and  _148
REMARK   60  A    between atoms: _150  and  _152
REMARK   61  A    between atoms: _152  and  _153
REMARK   62  A    between atoms: _152  and  _155
REMARK   63  A    between atoms: _155  and  _156
REMARK   64  A    between atoms: _159  and  _161
REMARK   65  A    between atoms: _161  and  _162
REMARK   66  A    between atoms: _161  and  _164
REMARK   67  A    between atoms: _164  and  _165
REMARK   68  A    between atoms: _168  and  _170
REMARK   69  A    between atoms: _170  and  _171
REMARK   70  A    between atoms: _173  and  _175
REMARK   71  A    between atoms: _175  and  _176
REMARK   72  A    between atoms: _175  and  _178
REMARK   73  A    between atoms: _178  and  _179
REMARK   74  A    between atoms: _179  and  _180
REMARK   75  A    between atoms: _185  and  _187
REMARK   76  A    between atoms: _187  and  _188
REMARK   77  A    between atoms: _187  and  _190
REMARK   78  A    between atoms: _190  and  _191
REMARK   79  A    between atoms: _194  and  _196
REMARK   80  A    between atoms: _196  and  _197
REMARK   81  A    between atoms: _196  and  _199
REMARK   82  A    between atoms: _202  and  _204
REMARK   83  A    between atoms: _204  and  _205
REMARK   84  A    between atoms: _204  and  _207
REMARK   85  A    between atoms: _210  and  _212
REMARK   86  A    between atoms: _212  and  _213
REMARK   87  A    between atoms: _216  and  _218
REMARK   88  A    between atoms: _218  and  _219
REMARK   89  A    between atoms: _218  and  _221
REMARK   90  A    between atoms: _221  and  _222
REMARK   91  A    between atoms: _222  and  _223
REMARK   92  A    between atoms: _223  and  _224
REMARK   93  A    between atoms: _233  and  _235
REMARK   94  A    between atoms: _235  and  _236
REMARK   95  A    between atoms: _235  and  _238
REMARK   96  A    between atoms: _238  and  _239
REMARK   97  A    between atoms: _239  and  _240
REMARK   98  A    between atoms: _243  and  _245
REMARK   99  A    between atoms: _245  and  _246
REMARK  100  A    between atoms: _245  and  _248
REMARK  101  A    between atoms: _248  and  _249
REMARK  102  A    between atoms: _252  and  _254
REMARK  103  A    between atoms: _254  and  _255
REMARK  104  A    between atoms: _254  and  _257
REMARK  105  A    between atoms: _257  and  _258
REMARK  106  A    between atoms: _263  and  _265
REMARK  107  A    between atoms: _265  and  _266
REMARK  108  A    between atoms: _265  and  _268
REMARK  109  A    between atoms: _268  and  _269
REMARK  110  A    between atoms: _269  and  _270
REMARK  111  A    between atoms: _270  and  _271
REMARK  112  A    between atoms: _281  and  _282
REMARK  113  A    between atoms: _287  and  _289
REMARK  114  A    between atoms: _289  and  _290
REMARK  115  A    between atoms: _289  and  _292
REMARK  116  A    between atoms: _292  and  _293
REMARK  117  A    between atoms: _298  and  _300
REMARK  118  A    between atoms: _300  and  _301
REMARK  119  A    between atoms: _300  and  _303
REMARK  120  A    between atoms: _303  and  _304
REMARK  121  A    between atoms: _308  and  _309
REMARK  122  A    between atoms: _314  and  _316
REMARK  123  A    between atoms: _316  and  _317
REMARK  124  A    between atoms: _316  and  _319
REMARK  125  A    between atoms: _319  and  _320
REMARK  126  A    between atoms: _322  and  _324
REMARK  127  A    between atoms: _324  and  _325
REMARK  128  A    between atoms: _324  and  _327
REMARK  129  A    between atoms: _327  and  _328
REMARK  130  A    between atoms: _331  and  _333
REMARK  131  A    between atoms: _333  and  _334
REMARK  132  A    between atoms: _333  and  _336
REMARK  133  A    between atoms: _336  and  _337
REMARK  134  A    between atoms: _337  and  _338
REMARK  135  A    between atoms: _338  and  _339
REMARK  136  A    between atoms: _348  and  _350
REMARK  137  A    between atoms: _350  and  _351
REMARK  138  A    between atoms: _350  and  _353
REMARK  139  A    between atoms: _353  and  _354
REMARK  140  A    between atoms: _360  and  _362
REMARK  141  A    between atoms: _362  and  _363
REMARK  142  A    between atoms: _362  and  _365
REMARK  143  A    between atoms: _365  and  _366
REMARK  144  A    between atoms: _368  and  _370
REMARK  145  A    between atoms: _370  and  _371
REMARK  146  A    between atoms: _374  and  _376
REMARK  147  A    between atoms: _376  and  _377
REMARK  148  A    between atoms: _376  and  _379
REMARK  149  A    between atoms: _379  and  _380
REMARK  150  A    between atoms: _385  and  _386
REMARK  151  A    between atoms: _388  and  _390
REMARK  152  A    between atoms: _390  and  _391
REMARK  153  A    between atoms: _390  and  _393
REMARK  154  A    between atoms: _393  and  _394
REMARK  155  A    between atoms: _394  and  _395
REMARK  156  A    between atoms: _397  and  _399
REMARK  157  A    between atoms: _399  and  _400
REMARK  158  A    between atoms: _399  and  _402
REMARK  159  A    between atoms: _402  and  _403
REMARK  160  A    between atoms: _408  and  _409
REMARK  161  A    between atoms: _411  and  _413
REMARK  162  A    between atoms: _413  and  _414
REMARK  163  A    between atoms: _413  and  _416
REMARK  164  A    between atoms: _416  and  _417
REMARK  165  A    between atoms: _420  and  _422
REMARK  166  A    between atoms: _422  and  _423
REMARK  167  A    between atoms: _422  and  _425
REMARK  168  A    between atoms: _425  and  _426
REMARK  169  A    between atoms: _426  and  _427
REMARK  170  A    between atoms: _429  and  _431
REMARK  171  A    between atoms: _431  and  _432
REMARK  172  A    between atoms: _431  and  _434
REMARK  173  A    between atoms: _434  and  _435
REMARK  174  A    between atoms: _439  and  _440
REMARK  175  A    between atoms: _445  and  _447
REMARK  176  A    between atoms: _447  and  _448
REMARK  177  A    between atoms: _447  and  _450
REMARK  178  A    between atoms: _450  and  _451
REMARK  179  A    between atoms: _455  and  _456
REMARK  180  A    between atoms: _461  and  _463
REMARK  181  A    between atoms: _463  and  _464
REMARK  182  A    between atoms: _463  and  _466
REMARK  183  A    between atoms: _466  and  _467
REMARK  184  A    between atoms: _470  and  _472
REMARK  185  A    between atoms: _472  and  _473
REMARK  186  A    between atoms: _472  and  _475
REMARK  187  A    between atoms: _475  and  _476
REMARK  188  A    between atoms: _479  and  _481
REMARK  189  A    between atoms: _481  and  _482
REMARK  190  A    between atoms: _481  and  _484
REMARK  191  A    between atoms: _484  and  _485
REMARK  192  A    between atoms: _487  and  _489
REMARK  193  A    between atoms: _489  and  _490
REMARK  194  A    between atoms: _492  and  _494
REMARK  195  A    between atoms: _494  and  _495
REMARK  196  A    between atoms: _494  and  _497
REMARK  197  A    between atoms: _497  and  _498
REMARK  198  A    between atoms: _503  and  _504
REMARK  199  A    between atoms: _506  and  _508
REMARK  200  A    between atoms: _508  and  _509
REMARK  201  A    between atoms: _508  and  _511
REMARK  202  A    between atoms: _511  and  _512
REMARK  203  A    between atoms: _515  and  _517
REMARK  204  A    between atoms: _517  and  _518
REMARK  205  A    between atoms: _517  and  _520
REMARK  206  A    between atoms: _520  and  _521
REMARK  207  A    between atoms: _524  and  _526
REMARK  208  A    between atoms: _526  and  _527
REMARK  209  A    between atoms: _529  and  _531
REMARK  210  A    between atoms: _531  and  _532
REMARK  211  A    between atoms: _531  and  _534
REMARK  212  A    between atoms: _534  and  _535
REMARK  213  A    between atoms: _535  and  _536
REMARK  214  A    between atoms: _541  and  _543
REMARK  215  A    between atoms: _543  and  _544
REMARK  216  A    between atoms: _543  and  _546
REMARK  217  A    between atoms: _546  and  _547
REMARK  218  A    between atoms: _550  and  _552
REMARK  219  A    between atoms: _552  and  _553
REMARK  220  A    between atoms: _552  and  _555
REMARK  221  A    between atoms: _558  and  _560
REMARK  222  A    between atoms: _560  and  _561
REMARK  223  A    between atoms: _560  and  _563
REMARK  224  A    between atoms: _566  and  _568
REMARK  225  A    between atoms: _568  and  _569
REMARK  226  A    between atoms: _572  and  _574
REMARK  227  A    between atoms: _574  and  _575
REMARK  228  A    between atoms: _574  and  _577
REMARK  229  A    between atoms: _577  and  _578
REMARK  230  A    between atoms: _578  and  _579
REMARK  231  A    between atoms: _579  and  _580
REMARK  232  A    between atoms: _589  and  _591
REMARK  233  A    between atoms: _591  and  _592
REMARK  234  A    between atoms: _591  and  _594
REMARK  235  A    between atoms: _594  and  _595
REMARK  236  A    between atoms: _600  and  _602
REMARK  237  A    between atoms: _602  and  _603
REMARK  238  A    between atoms: _602  and  _605
REMARK  239  A    between atoms: _605  and  _606
REMARK  240  A    between atoms: _610  and  _611
REMARK  241  A    between atoms: _616  and  _618
REMARK  242  A    between atoms: _618  and  _619
REMARK  243  A    between atoms: _618  and  _621
REMARK  244  A    between atoms: _621  and  _622
REMARK  245  A    between atoms: _624  and  _626
REMARK  246  A    between atoms: _626  and  _627
REMARK  247  A    between atoms: _626  and  _629
REMARK  248  A    between atoms: _629  and  _630
REMARK  249  A    between atoms: _633  and  _635
REMARK  250  A    between atoms: _635  and  _636
REMARK  251  A    between atoms: _635  and  _638
REMARK  252  A    between atoms: _638  and  _639
REMARK  253  A    between atoms: _639  and  _640
REMARK  254  A    between atoms: _640  and  _641
REMARK                            x       y       z     vdW  Elec       q    Type
REMARK                         _______ _______ _______ _____ _____    ______ ____
ROOT
ATOM      1  O   HOH     1     -22.407 -14.234  12.213  0.00  0.00    +0.000 OA
ENDROOT
TORSDOF 0
REMARK  Name = ../refined-set-2016/3b2q/3b2q_pocket.pdb
REMARK  254 active torsions:
REMARK  status: ('A' for Active; 'I' for Inactive)
REMARK    1  A    between atoms: _2  and  _3
REMARK    2  A    between atoms: _8  and  _10
REMARK    3  A    between atoms: _10  and  _11
REMARK    4  A    between atoms: _10  and  _13
REMARK    5  A    between atoms: _13  and  _14
REMARK    6  A    between atoms: _17  and  _19
REMARK    7  A    between atoms: _19  and  _20
REMARK    8  A    between atoms: _19  and  _22
REMARK    9  A    between atoms: _22  and  _23
REMARK   10  A    between atoms: _29  and  _31
REMARK   11  A    between atoms: _31  and  _32
REMARK   12  A    between atoms: _31  and  _34
REMARK   13  A    between atoms: _34  and  _35
REMARK   14  A    between atoms: _37  and  _39
REMARK   15  A    between atoms: _39  and  _40
REMARK   16  A    between atoms: _43  and  _45
REMARK   17  A    between atoms: _45  and  _46
REMARK   18  A    between atoms: _45  and  _48
REMARK   19  A    between atoms: _48  and  _49
REMARK   20  A    between atoms: _51  and  _53
REMARK   21  A    between atoms: _53  and  _54
REMARK   22  A    between atoms: _56  and  _58
REMARK   23  A    between atoms: _58  and  _59
REMARK   24  A    between atoms: _58  and  _61
REMARK   25  A    between atoms: _61  and  _62
REMARK   26  A    between atoms: _65  and  _67
REMARK   27  A    between atoms: _67  and  _68
REMARK   28  A    between atoms: _67  and  _70
REMARK   29  A    between atoms: _70  and  _71
REMARK   30  A    between atoms: _74  and  _76
REMARK   31  A    between atoms: _76  and  _77
REMARK   32  A    between atoms: _76  and  _79
REMARK   33  A    between atoms: _79  and  _80
REMARK   34  A    between atoms: _82  and  _84
REMARK   35  A    between atoms: _84  and  _85
REMARK   36  A    between atoms: _84  and  _87
REMARK   37  A    between atoms: _87  and  _88
REMARK   38  A    between atoms: _88  and  _89
REMARK   39  A    between atoms: _92  and  _93
REMARK   40  A    between atoms: _99  and  _100
REMARK   41  A    between atoms: _105  and  _107
REMARK   42  A    between atoms: _107  and  _108
REMARK   43  A    between atoms: _107  and  _110
REMARK   44  A    between atoms: _110  and  _111
REMARK   45  A    between atoms: _114  and  _116
REMARK   46  A    between atoms: _116  and  _117
REMARK   47  A    between atoms: _116  and  _119
REMARK   48  A    between atoms: _119  and  _120
REMARK   49  A    between atoms: _123  and  _125
REMARK   50  A    between atoms: _125  and  _126
REMARK   51  A    between atoms: _125  and  _128
REMARK   52  A    between atoms: _128  and  _129
REMARK   53  A    between atoms: _131  and  _133
REMARK   54  A    between atoms: _133  and  _134
REMARK   55  A    between atoms: _136  and  _138
REMARK   56  A    between atoms: _138  and  _139
REMARK   57  A    between atoms: _138  and  _141
REMARK   58  A    between atoms: _141  and  _142
REMARK   59  A    between atoms: _147  and  _148
REMARK   60  A    between atoms: _150  and  _152
REMARK   61  A    between atoms: _152  and  _153
REMARK   62  A    between atoms: _152  and  _155
REMARK   63  A    between atoms: _155  and  _156
REMARK   64  A    between atoms: _159  and  _161
REMARK   65  A    between atoms: _161  and  _162
REMARK   66  A    between atoms: _161  and  _164
REMARK   67  A    between atoms: _164  and  _165
REMARK   68  A    between atoms: _168  and  _170
REMARK   69  A    between atoms: _170  and  _171
REMARK   70  A    between atoms: _173  and  _175
REMARK   71  A    between atoms: _175  and  _176
REMARK   72  A    between atoms: _175  and  _178
REMARK   73  A    between atoms: _178  and  _179
REMARK   74  A    between atoms: _179  and  _180
REMARK   75  A    between atoms: _185  and  _187
REMARK   76  A    between atoms: _187  and  _188
REMARK   77  A    between atoms: _187  and  _190
REMARK   78  A    between atoms: _190  and  _191
REMARK   79  A    between atoms: _194  and  _196
REMARK   80  A    between atoms: _196  and  _197
REMARK   81  A    between atoms: _196  and  _199
REMARK   82  A    between atoms: _202  and  _204
REMARK   83  A    between atoms: _204  and  _205
REMARK   84  A    between atoms: _204  and  _207
REMARK   85  A    between atoms: _210  and  _212
REMARK   86  A    between atoms: _212  and  _213
REMARK   87  A    between atoms: _216  and  _218
REMARK   88  A    between atoms: _218  and  _219
REMARK   89  A    between atoms: _218  and  _221
REMARK   90  A    between atoms: _221  and  _222
REMARK   91  A    between atoms: _222  and  _223
REMARK   92  A    between atoms: _223  and  _224
REMARK   93  A    between atoms: _233  and  _235
REMARK   94  A    between atoms: _235  and  _236
REMARK   95  A    between atoms: _235  and  _238
REMARK   96  A    between atoms: _238  and  _239
REMARK   97  A    between atoms: _239  and  _240
REMARK   98  A    between atoms: _243  and  _245
REMARK   99  A    between atoms: _245  and  _246
REMARK  100  A    between atoms: _245  and  _248
REMARK  101  A    between atoms: _248  and  _249
REMARK  102  A    between atoms: _252  and  _254
REMARK  103  A    between atoms: _254  and  _255
REMARK  104  A    between atoms: _254  and  _257
REMARK  105  A    between atoms: _257  and  _258
REMARK  106  A    between atoms: _263  and  _265
REMARK  107  A    between atoms: _265  and  _266
REMARK  108  A    between atoms: _265  and  _268
REMARK  109  A    between atoms: _268  and  _269
REMARK  110  A    between atoms: _269  and  _270
REMARK  111  A    between atoms: _270  and  _271
REMARK  112  A    between atoms: _281  and  _282
REMARK  113  A    between atoms: _287  and  _289
REMARK  114  A    between atoms: _289  and  _290
REMARK  115  A    between atoms: _289  and  _292
REMARK  116  A    between atoms: _292  and  _293
REMARK  117  A    between atoms: _298  and  _300
REMARK  118  A    between atoms: _300  and  _301
REMARK  119  A    between atoms: _300  and  _303
REMARK  120  A    between atoms: _303  and  _304
REMARK  121  A    between atoms: _308  and  _309
REMARK  122  A    between atoms: _314  and  _316
REMARK  123  A    between atoms: _316  and  _317
REMARK  124  A    between atoms: _316  and  _319
REMARK  125  A    between atoms: _319  and  _320
REMARK  126  A    between atoms: _322  and  _324
REMARK  127  A    between atoms: _324  and  _325
REMARK  128  A    between atoms: _324  and  _327
REMARK  129  A    between atoms: _327  and  _328
REMARK  130  A    between atoms: _331  and  _333
REMARK  131  A    between atoms: _333  and  _334
REMARK  132  A    between atoms: _333  and  _336
REMARK  133  A    between atoms: _336  and  _337
REMARK  134  A    between atoms: _337  and  _338
REMARK  135  A    between atoms: _338  and  _339
REMARK  136  A    between atoms: _348  and  _350
REMARK  137  A    between atoms: _350  and  _351
REMARK  138  A    between atoms: _350  and  _353
REMARK  139  A    between atoms: _353  and  _354
REMARK  140  A    between atoms: _360  and  _362
REMARK  141  A    between atoms: _362  and  _363
REMARK  142  A    between atoms: _362  and  _365
REMARK  143  A    between atoms: _365  and  _366
REMARK  144  A    between atoms: _368  and  _370
REMARK  145  A    between atoms: _370  and  _371
REMARK  146  A    between atoms: _374  and  _376
REMARK  147  A    between atoms: _376  and  _377
REMARK  148  A    between atoms: _376  and  _379
REMARK  149  A    between atoms: _379  and  _380
REMARK  150  A    between atoms: _385  and  _386
REMARK  151  A    between atoms: _388  and  _390
REMARK  152  A    between atoms: _390  and  _391
REMARK  153  A    between atoms: _390  and  _393
REMARK  154  A    between atoms: _393  and  _394
REMARK  155  A    between atoms: _394  and  _395
REMARK  156  A    between atoms: _397  and  _399
REMARK  157  A    between atoms: _399  and  _400
REMARK  158  A    between atoms: _399  and  _402
REMARK  159  A    between atoms: _402  and  _403
REMARK  160  A    between atoms: _408  and  _409
REMARK  161  A    between atoms: _411  and  _413
REMARK  162  A    between atoms: _413  and  _414
REMARK  163  A    between atoms: _413  and  _416
REMARK  164  A    between atoms: _416  and  _417
REMARK  165  A    between atoms: _420  and  _422
REMARK  166  A    between atoms: _422  and  _423
REMARK  167  A    between atoms: _422  and  _425
REMARK  168  A    between atoms: _425  and  _426
REMARK  169  A    between atoms: _426  and  _427
REMARK  170  A    between atoms: _429  and  _431
REMARK  171  A    between atoms: _431  and  _432
REMARK  172  A    between atoms: _431  and  _434
REMARK  173  A    between atoms: _434  and  _435
REMARK  174  A    between atoms: _439  and  _440
REMARK  175  A    between atoms: _445  and  _447
REMARK  176  A    between atoms: _447  and  _448
REMARK  177  A    between atoms: _447  and  _450
REMARK  178  A    between atoms: _450  and  _451
REMARK  179  A    between atoms: _455  and  _456
REMARK  180  A    between atoms: _461  and  _463
REMARK  181  A    between atoms: _463  and  _464
REMARK  182  A    between atoms: _463  and  _466
REMARK  183  A    between atoms: _466  and  _467
REMARK  184  A    between atoms: _470  and  _472
REMARK  185  A    between atoms: _472  and  _473
REMARK  186  A    between atoms: _472  and  _475
REMARK  187  A    between atoms: _475  and  _476
REMARK  188  A    between atoms: _479  and  _481
REMARK  189  A    between atoms: _481  and  _482
REMARK  190  A    between atoms: _481  and  _484
REMARK  191  A    between atoms: _484  and  _485
REMARK  192  A    between atoms: _487  and  _489
REMARK  193  A    between atoms: _489  and  _490
REMARK  194  A    between atoms: _492  and  _494
REMARK  195  A    between atoms: _494  and  _495
REMARK  196  A    between atoms: _494  and  _497
REMARK  197  A    between atoms: _497  and  _498
REMARK  198  A    between atoms: _503  and  _504
REMARK  199  A    between atoms: _506  and  _508
REMARK  200  A    between atoms: _508  and  _509
REMARK  201  A    between atoms: _508  and  _511
REMARK  202  A    between atoms: _511  and  _512
REMARK  203  A    between atoms: _515  and  _517
REMARK  204  A    between atoms: _517  and  _518
REMARK  205  A    between atoms: _517  and  _520
REMARK  206  A    between atoms: _520  and  _521
REMARK  207  A    between atoms: _524  and  _526
REMARK  208  A    between atoms: _526  and  _527
REMARK  209  A    between atoms: _529  and  _531
REMARK  210  A    between atoms: _531  and  _532
REMARK  211  A    between atoms: _531  and  _534
REMARK  212  A    between atoms: _534  and  _535
REMARK  213  A    between atoms: _535  and  _536
REMARK  214  A    between atoms: _541  and  _543
REMARK  215  A    between atoms: _543  and  _544
REMARK  216  A    between atoms: _543  and  _546
REMARK  217  A    between atoms: _546  and  _547
REMARK  218  A    between atoms: _550  and  _552
REMARK  219  A    between atoms: _552  and  _553
REMARK  220  A    between atoms: _552  and  _555
REMARK  221  A    between atoms: _558  and  _560
REMARK  222  A    between atoms: _560  and  _561
REMARK  223  A    between atoms: _560  and  _563
REMARK  224  A    between atoms: _566  and  _568
REMARK  225  A    between atoms: _568  and  _569
REMARK  226  A    between atoms: _572  and  _574
REMARK  227  A    between atoms: _574  and  _575
REMARK  228  A    between atoms: _574  and  _577
REMARK  229  A    between atoms: _577  and  _578
REMARK  230  A    between atoms: _578  and  _579
REMARK  231  A    between atoms: _579  and  _580
REMARK  232  A    between atoms: _589  and  _591
REMARK  233  A    between atoms: _591  and  _592
REMARK  234  A    between atoms: _591  and  _594
REMARK  235  A    between atoms: _594  and  _595
REMARK  236  A    between atoms: _600  and  _602
REMARK  237  A    between atoms: _602  and  _603
REMARK  238  A    between atoms: _602  and  _605
REMARK  239  A    between atoms: _605  and  _606
REMARK  240  A    between atoms: _610  and  _611
REMARK  241  A    between atoms: _616  and  _618
REMARK  242  A    between atoms: _618  and  _619
REMARK  243  A    between atoms: _618  and  _621
REMARK  244  A    between atoms: _621  and  _622
REMARK  245  A    between atoms: _624  and  _626
REMARK  246  A    between atoms: _626  and  _627
REMARK  247  A    between atoms: _626  and  _629
REMARK  248  A    between atoms: _629  and  _630
REMARK  249  A    between atoms: _633  and  _635
REMARK  250  A    between atoms: _635  and  _636
REMARK  251  A    between atoms: _635  and  _638
REMARK  252  A    between atoms: _638  and  _639
REMARK  253  A    between atoms: _639  and  _640
REMARK  254  A    between atoms: _640  and  _641
REMARK                            x       y       z     vdW  Elec       q    Type
REMARK                         _______ _______ _______ _____ _____    ______ ____
ROOT
ATOM      1  O   HOH     1     -32.474 -14.696  31.977  0.00  0.00    +0.000 OA
ENDROOT
TORSDOF 0
REMARK  Name = ../refined-set-2016/3b2q/3b2q_pocket.pdb
REMARK  254 active torsions:
REMARK  status: ('A' for Active; 'I' for Inactive)
REMARK    1  A    between atoms: _2  and  _3
REMARK    2  A    between atoms: _8  and  _10
REMARK    3  A    between atoms: _10  and  _11
REMARK    4  A    between atoms: _10  and  _13
REMARK    5  A    between atoms: _13  and  _14
REMARK    6  A    between atoms: _17  and  _19
REMARK    7  A    between atoms: _19  and  _20
REMARK    8  A    between atoms: _19  and  _22
REMARK    9  A    between atoms: _22  and  _23
REMARK   10  A    between atoms: _29  and  _31
REMARK   11  A    between atoms: _31  and  _32
REMARK   12  A    between atoms: _31  and  _34
REMARK   13  A    between atoms: _34  and  _35
REMARK   14  A    between atoms: _37  and  _39
REMARK   15  A    between atoms: _39  and  _40
REMARK   16  A    between atoms: _43  and  _45
REMARK   17  A    between atoms: _45  and  _46
REMARK   18  A    between atoms: _45  and  _48
REMARK   19  A    between atoms: _48  and  _49
REMARK   20  A    between atoms: _51  and  _53
REMARK   21  A    between atoms: _53  and  _54
REMARK   22  A    between atoms: _56  and  _58
REMARK   23  A    between atoms: _58  and  _59
REMARK   24  A    between atoms: _58  and  _61
REMARK   25  A    between atoms: _61  and  _62
REMARK   26  A    between atoms: _65  and  _67
REMARK   27  A    between atoms: _67  and  _68
REMARK   28  A    between atoms: _67  and  _70
REMARK   29  A    between atoms: _70  and  _71
REMARK   30  A    between atoms: _74  and  _76
REMARK   31  A    between atoms: _76  and  _77
REMARK   32  A    between atoms: _76  and  _79
REMARK   33  A    between atoms: _79  and  _80
REMARK   34  A    between atoms: _82  and  _84
REMARK   35  A    between atoms: _84  and  _85
REMARK   36  A    between atoms: _84  and  _87
REMARK   37  A    between atoms: _87  and  _88
REMARK   38  A    between atoms: _88  and  _89
REMARK   39  A    between atoms: _92  and  _93
REMARK   40  A    between atoms: _99  and  _100
REMARK   41  A    between atoms: _105  and  _107
REMARK   42  A    between atoms: _107  and  _108
REMARK   43  A    between atoms: _107  and  _110
REMARK   44  A    between atoms: _110  and  _111
REMARK   45  A    between atoms: _114  and  _116
REMARK   46  A    between atoms: _116  and  _117
REMARK   47  A    between atoms: _116  and  _119
REMARK   48  A    between atoms: _119  and  _120
REMARK   49  A    between atoms: _123  and  _125
REMARK   50  A    between atoms: _125  and  _126
REMARK   51  A    between atoms: _125  and  _128
REMARK   52  A    between atoms: _128  and  _129
REMARK   53  A    between atoms: _131  and  _133
REMARK   54  A    between atoms: _133  and  _134
REMARK   55  A    between atoms: _136  and  _138
REMARK   56  A    between atoms: _138  and  _139
REMARK   57  A    between atoms: _138  and  _141
REMARK   58  A    between atoms: _141  and  _142
REMARK   59  A    between atoms: _147  and  _148
REMARK   60  A    between atoms: _150  and  _152
REMARK   61  A    between atoms: _152  and  _153
REMARK   62  A    between atoms: _152  and  _155
REMARK   63  A    between atoms: _155  and  _156
REMARK   64  A    between atoms: _159  and  _161
REMARK   65  A    between atoms: _161  and  _162
REMARK   66  A    between atoms: _161  and  _164
REMARK   67  A    between atoms: _164  and  _165
REMARK   68  A    between atoms: _168  and  _170
REMARK   69  A    between atoms: _170  and  _171
REMARK   70  A    between atoms: _173  and  _175
REMARK   71  A    between atoms: _175  and  _176
REMARK   72  A    between atoms: _175  and  _178
REMARK   73  A    between atoms: _178  and  _179
REMARK   74  A    between atoms: _179  and  _180
REMARK   75  A    between atoms: _185  and  _187
REMARK   76  A    between atoms: _187  and  _188
REMARK   77  A    between atoms: _187  and  _190
REMARK   78  A    between atoms: _190  and  _191
REMARK   79  A    between atoms: _194  and  _196
REMARK   80  A    between atoms: _196  and  _197
REMARK   81  A    between atoms: _196  and  _199
REMARK   82  A    between atoms: _202  and  _204
REMARK   83  A    between atoms: _204  and  _205
REMARK   84  A    between atoms: _204  and  _207
REMARK   85  A    between atoms: _210  and  _212
REMARK   86  A    between atoms: _212  and  _213
REMARK   87  A    between atoms: _216  and  _218
REMARK   88  A    between atoms: _218  and  _219
REMARK   89  A    between atoms: _218  and  _221
REMARK   90  A    between atoms: _221  and  _222
REMARK   91  A    between atoms: _222  and  _223
REMARK   92  A    between atoms: _223  and  _224
REMARK   93  A    between atoms: _233  and  _235
REMARK   94  A    between atoms: _235  and  _236
REMARK   95  A    between atoms: _235  and  _238
REMARK   96  A    between atoms: _238  and  _239
REMARK   97  A    between atoms: _239  and  _240
REMARK   98  A    between atoms: _243  and  _245
REMARK   99  A    between atoms: _245  and  _246
REMARK  100  A    between atoms: _245  and  _248
REMARK  101  A    between atoms: _248  and  _249
REMARK  102  A    between atoms: _252  and  _254
REMARK  103  A    between atoms: _254  and  _255
REMARK  104  A    between atoms: _254  and  _257
REMARK  105  A    between atoms: _257  and  _258
REMARK  106  A    between atoms: _263  and  _265
REMARK  107  A    between atoms: _265  and  _266
REMARK  108  A    between atoms: _265  and  _268
REMARK  109  A    between atoms: _268  and  _269
REMARK  110  A    between atoms: _269  and  _270
REMARK  111  A    between atoms: _270  and  _271
REMARK  112  A    between atoms: _281  and  _282
REMARK  113  A    between atoms: _287  and  _289
REMARK  114  A    between atoms: _289  and  _290
REMARK  115  A    between atoms: _289  and  _292
REMARK  116  A    between atoms: _292  and  _293
REMARK  117  A    between atoms: _298  and  _300
REMARK  118  A    between atoms: _300  and  _301
REMARK  119  A    between atoms: _300  and  _303
REMARK  120  A    between atoms: _303  and  _304
REMARK  121  A    between atoms: _308  and  _309
REMARK  122  A    between atoms: _314  and  _316
REMARK  123  A    between atoms: _316  and  _317
REMARK  124  A    between atoms: _316  and  _319
REMARK  125  A    between atoms: _319  and  _320
REMARK  126  A    between atoms: _322  and  _324
REMARK  127  A    between atoms: _324  and  _325
REMARK  128  A    between atoms: _324  and  _327
REMARK  129  A    between atoms: _327  and  _328
REMARK  130  A    between atoms: _331  and  _333
REMARK  131  A    between atoms: _333  and  _334
REMARK  132  A    between atoms: _333  and  _336
REMARK  133  A    between atoms: _336  and  _337
REMARK  134  A    between atoms: _337  and  _338
REMARK  135  A    between atoms: _338  and  _339
REMARK  136  A    between atoms: _348  and  _350
REMARK  137  A    between atoms: _350  and  _351
REMARK  138  A    between atoms: _350  and  _353
REMARK  139  A    between atoms: _353  and  _354
REMARK  140  A    between atoms: _360  and  _362
REMARK  141  A    between atoms: _362  and  _363
REMARK  142  A    between atoms: _362  and  _365
REMARK  143  A    between atoms: _365  and  _366
REMARK  144  A    between atoms: _368  and  _370
REMARK  145  A    between atoms: _370  and  _371
REMARK  146  A    between atoms: _374  and  _376
REMARK  147  A    between atoms: _376  and  _377
REMARK  148  A    between atoms: _376  and  _379
REMARK  149  A    between atoms: _379  and  _380
REMARK  150  A    between atoms: _385  and  _386
REMARK  151  A    between atoms: _388  and  _390
REMARK  152  A    between atoms: _390  and  _391
REMARK  153  A    between atoms: _390  and  _393
REMARK  154  A    between atoms: _393  and  _394
REMARK  155  A    between atoms: _394  and  _395
REMARK  156  A    between atoms: _397  and  _399
REMARK  157  A    between atoms: _399  and  _400
REMARK  158  A    between atoms: _399  and  _402
REMARK  159  A    between atoms: _402  and  _403
REMARK  160  A    between atoms: _408  and  _409
REMARK  161  A    between atoms: _411  and  _413
REMARK  162  A    between atoms: _413  and  _414
REMARK  163  A    between atoms: _413  and  _416
REMARK  164  A    between atoms: _416  and  _417
REMARK  165  A    between atoms: _420  and  _422
REMARK  166  A    between atoms: _422  and  _423
REMARK  167  A    between atoms: _422  and  _425
REMARK  168  A    between atoms: _425  and  _426
REMARK  169  A    between atoms: _426  and  _427
REMARK  170  A    between atoms: _429  and  _431
REMARK  171  A    between atoms: _431  and  _432
REMARK  172  A    between atoms: _431  and  _434
REMARK  173  A    between atoms: _434  and  _435
REMARK  174  A    between atoms: _439  and  _440
REMARK  175  A    between atoms: _445  and  _447
REMARK  176  A    between atoms: _447  and  _448
REMARK  177  A    between atoms: _447  and  _450
REMARK  178  A    between atoms: _450  and  _451
REMARK  179  A    between atoms: _455  and  _456
REMARK  180  A    between atoms: _461  and  _463
REMARK  181  A    between atoms: _463  and  _464
REMARK  182  A    between atoms: _463  and  _466
REMARK  183  A    between atoms: _466  and  _467
REMARK  184  A    between atoms: _470  and  _472
REMARK  185  A    between atoms: _472  and  _473
REMARK  186  A    between atoms: _472  and  _475
REMARK  187  A    between atoms: _475  and  _476
REMARK  188  A    between atoms: _479  and  _481
REMARK  189  A    between atoms: _481  and  _482
REMARK  190  A    between atoms: _481  and  _484
REMARK  191  A    between atoms: _484  and  _485
REMARK  192  A    between atoms: _487  and  _489
REMARK  193  A    between atoms: _489  and  _490
REMARK  194  A    between atoms: _492  and  _494
REMARK  195  A    between atoms: _494  and  _495
REMARK  196  A    between atoms: _494  and  _497
REMARK  197  A    between atoms: _497  and  _498
REMARK  198  A    between atoms: _503  and  _504
REMARK  199  A    between atoms: _506  and  _508
REMARK  200  A    between atoms: _508  and  _509
REMARK  201  A    between atoms: _508  and  _511
REMARK  202  A    between atoms: _511  and  _512
REMARK  203  A    between atoms: _515  and  _517
REMARK  204  A    between atoms: _517  and  _518
REMARK  205  A    between atoms: _517  and  _520
REMARK  206  A    between atoms: _520  and  _521
REMARK  207  A    between atoms: _524  and  _526
REMARK  208  A    between atoms: _526  and  _527
REMARK  209  A    between atoms: _529  and  _531
REMARK  210  A    between atoms: _531  and  _532
REMARK  211  A    between atoms: _531  and  _534
REMARK  212  A    between atoms: _534  and  _535
REMARK  213  A    between atoms: _535  and  _536
REMARK  214  A    between atoms: _541  and  _543
REMARK  215  A    between atoms: _543  and  _544
REMARK  216  A    between atoms: _543  and  _546
REMARK  217  A    between atoms: _546  and  _547
REMARK  218  A    between atoms: _550  and  _552
REMARK  219  A    between atoms: _552  and  _553
REMARK  220  A    between atoms: _552  and  _555
REMARK  221  A    between atoms: _558  and  _560
REMARK  222  A    between atoms: _560  and  _561
REMARK  223  A    between atoms: _560  and  _563
REMARK  224  A    between atoms: _566  and  _568
REMARK  225  A    between atoms: _568  and  _569
REMARK  226  A    between atoms: _572  and  _574
REMARK  227  A    between atoms: _574  and  _575
REMARK  228  A    between atoms: _574  and  _577
REMARK  229  A    between atoms: _577  and  _578
REMARK  230  A    between atoms: _578  and  _579
REMARK  231  A    between atoms: _579  and  _580
REMARK  232  A    between atoms: _589  and  _591
REMARK  233  A    between atoms: _591  and  _592
REMARK  234  A    between atoms: _591  and  _594
REMARK  235  A    between atoms: _594  and  _595
REMARK  236  A    between atoms: _600  and  _602
REMARK  237  A    between atoms: _602  and  _603
REMARK  238  A    between atoms: _602  and  _605
REMARK  239  A    between atoms: _605  and  _606
REMARK  240  A    between atoms: _610  and  _611
REMARK  241  A    between atoms: _616  and  _618
REMARK  242  A    between atoms: _618  and  _619
REMARK  243  A    between atoms: _618  and  _621
REMARK  244  A    between atoms: _621  and  _622
REMARK  245  A    between atoms: _624  and  _626
REMARK  246  A    between atoms: _626  and  _627
REMARK  247  A    between atoms: _626  and  _629
REMARK  248  A    between atoms: _629  and  _630
REMARK  249  A    between atoms: _633  and  _635
REMARK  250  A    between atoms: _635  and  _636
REMARK  251  A    between atoms: _635  and  _638
REMARK  252  A    between atoms: _638  and  _639
REMARK  253  A    between atoms: _639  and  _640
REMARK  254  A    between atoms: _640  and  _641
REMARK                            x       y       z     vdW  Elec       q    Type
REMARK                         _______ _______ _______ _____ _____    ______ ____
ROOT
ATOM      1  O   HOH     1     -30.680 -14.123  30.315  0.00  0.00    +0.000 OA
ENDROOT
TORSDOF 0
REMARK  Name = ../refined-set-2016/3b2q/3b2q_pocket.pdb
REMARK  254 active torsions:
REMARK  status: ('A' for Active; 'I' for Inactive)
REMARK    1  A    between atoms: _2  and  _3
REMARK    2  A    between atoms: _8  and  _10
REMARK    3  A    between atoms: _10  and  _11
REMARK    4  A    between atoms: _10  and  _13
REMARK    5  A    between atoms: _13  and  _14
REMARK    6  A    between atoms: _17  and  _19
REMARK    7  A    between atoms: _19  and  _20
REMARK    8  A    between atoms: _19  and  _22
REMARK    9  A    between atoms: _22  and  _23
REMARK   10  A    between atoms: _29  and  _31
REMARK   11  A    between atoms: _31  and  _32
REMARK   12  A    between atoms: _31  and  _34
REMARK   13  A    between atoms: _34  and  _35
REMARK   14  A    between atoms: _37  and  _39
REMARK   15  A    between atoms: _39  and  _40
REMARK   16  A    between atoms: _43  and  _45
REMARK   17  A    between atoms: _45  and  _46
REMARK   18  A    between atoms: _45  and  _48
REMARK   19  A    between atoms: _48  and  _49
REMARK   20  A    between atoms: _51  and  _53
REMARK   21  A    between atoms: _53  and  _54
REMARK   22  A    between atoms: _56  and  _58
REMARK   23  A    between atoms: _58  and  _59
REMARK   24  A    between atoms: _58  and  _61
REMARK   25  A    between atoms: _61  and  _62
REMARK   26  A    between atoms: _65  and  _67
REMARK   27  A    between atoms: _67  and  _68
REMARK   28  A    between atoms: _67  and  _70
REMARK   29  A    between atoms: _70  and  _71
REMARK   30  A    between atoms: _74  and  _76
REMARK   31  A    between atoms: _76  and  _77
REMARK   32  A    between atoms: _76  and  _79
REMARK   33  A    between atoms: _79  and  _80
REMARK   34  A    between atoms: _82  and  _84
REMARK   35  A    between atoms: _84  and  _85
REMARK   36  A    between atoms: _84  and  _87
REMARK   37  A    between atoms: _87  and  _88
REMARK   38  A    between atoms: _88  and  _89
REMARK   39  A    between atoms: _92  and  _93
REMARK   40  A    between atoms: _99  and  _100
REMARK   41  A    between atoms: _105  and  _107
REMARK   42  A    between atoms: _107  and  _108
REMARK   43  A    between atoms: _107  and  _110
REMARK   44  A    between atoms: _110  and  _111
REMARK   45  A    between atoms: _114  and  _116
REMARK   46  A    between atoms: _116  and  _117
REMARK   47  A    between atoms: _116  and  _119
REMARK   48  A    between atoms: _119  and  _120
REMARK   49  A    between atoms: _123  and  _125
REMARK   50  A    between atoms: _125  and  _126
REMARK   51  A    between atoms: _125  and  _128
REMARK   52  A    between atoms: _128  and  _129
REMARK   53  A    between atoms: _131  and  _133
REMARK   54  A    between atoms: _133  and  _134
REMARK   55  A    between atoms: _136  and  _138
REMARK   56  A    between atoms: _138  and  _139
REMARK   57  A    between atoms: _138  and  _141
REMARK   58  A    between atoms: _141  and  _142
REMARK   59  A    between atoms: _147  and  _148
REMARK   60  A    between atoms: _150  and  _152
REMARK   61  A    between atoms: _152  and  _153
REMARK   62  A    between atoms: _152  and  _155
REMARK   63  A    between atoms: _155  and  _156
REMARK   64  A    between atoms: _159  and  _161
REMARK   65  A    between atoms: _161  and  _162
REMARK   66  A    between atoms: _161  and  _164
REMARK   67  A    between atoms: _164  and  _165
REMARK   68  A    between atoms: _168  and  _170
REMARK   69  A    between atoms: _170  and  _171
REMARK   70  A    between atoms: _173  and  _175
REMARK   71  A    between atoms: _175  and  _176
REMARK   72  A    between atoms: _175  and  _178
REMARK   73  A    between atoms: _178  and  _179
REMARK   74  A    between atoms: _179  and  _180
REMARK   75  A    between atoms: _185  and  _187
REMARK   76  A    between atoms: _187  and  _188
REMARK   77  A    between atoms: _187  and  _190
REMARK   78  A    between atoms: _190  and  _191
REMARK   79  A    between atoms: _194  and  _196
REMARK   80  A    between atoms: _196  and  _197
REMARK   81  A    between atoms: _196  and  _199
REMARK   82  A    between atoms: _202  and  _204
REMARK   83  A    between atoms: _204  and  _205
REMARK   84  A    between atoms: _204  and  _207
REMARK   85  A    between atoms: _210  and  _212
REMARK   86  A    between atoms: _212  and  _213
REMARK   87  A    between atoms: _216  and  _218
REMARK   88  A    between atoms: _218  and  _219
REMARK   89  A    between atoms: _218  and  _221
REMARK   90  A    between atoms: _221  and  _222
REMARK   91  A    between atoms: _222  and  _223
REMARK   92  A    between atoms: _223  and  _224
REMARK   93  A    between atoms: _233  and  _235
REMARK   94  A    between atoms: _235  and  _236
REMARK   95  A    between atoms: _235  and  _238
REMARK   96  A    between atoms: _238  and  _239
REMARK   97  A    between atoms: _239  and  _240
REMARK   98  A    between atoms: _243  and  _245
REMARK   99  A    between atoms: _245  and  _246
REMARK  100  A    between atoms: _245  and  _248
REMARK  101  A    between atoms: _248  and  _249
REMARK  102  A    between atoms: _252  and  _254
REMARK  103  A    between atoms: _254  and  _255
REMARK  104  A    between atoms: _254  and  _257
REMARK  105  A    between atoms: _257  and  _258
REMARK  106  A    between atoms: _263  and  _265
REMARK  107  A    between atoms: _265  and  _266
REMARK  108  A    between atoms: _265  and  _268
REMARK  109  A    between atoms: _268  and  _269
REMARK  110  A    between atoms: _269  and  _270
REMARK  111  A    between atoms: _270  and  _271
REMARK  112  A    between atoms: _281  and  _282
REMARK  113  A    between atoms: _287  and  _289
REMARK  114  A    between atoms: _289  and  _290
REMARK  115  A    between atoms: _289  and  _292
REMARK  116  A    between atoms: _292  and  _293
REMARK  117  A    between atoms: _298  and  _300
REMARK  118  A    between atoms: _300  and  _301
REMARK  119  A    between atoms: _300  and  _303
REMARK  120  A    between atoms: _303  and  _304
REMARK  121  A    between atoms: _308  and  _309
REMARK  122  A    between atoms: _314  and  _316
REMARK  123  A    between atoms: _316  and  _317
REMARK  124  A    between atoms: _316  and  _319
REMARK  125  A    between atoms: _319  and  _320
REMARK  126  A    between atoms: _322  and  _324
REMARK  127  A    between atoms: _324  and  _325
REMARK  128  A    between atoms: _324  and  _327
REMARK  129  A    between atoms: _327  and  _328
REMARK  130  A    between atoms: _331  and  _333
REMARK  131  A    between atoms: _333  and  _334
REMARK  132  A    between atoms: _333  and  _336
REMARK  133  A    between atoms: _336  and  _337
REMARK  134  A    between atoms: _337  and  _338
REMARK  135  A    between atoms: _338  and  _339
REMARK  136  A    between atoms: _348  and  _350
REMARK  137  A    between atoms: _350  and  _351
REMARK  138  A    between atoms: _350  and  _353
REMARK  139  A    between atoms: _353  and  _354
REMARK  140  A    between atoms: _360  and  _362
REMARK  141  A    between atoms: _362  and  _363
REMARK  142  A    between atoms: _362  and  _365
REMARK  143  A    between atoms: _365  and  _366
REMARK  144  A    between atoms: _368  and  _370
REMARK  145  A    between atoms: _370  and  _371
REMARK  146  A    between atoms: _374  and  _376
REMARK  147  A    between atoms: _376  and  _377
REMARK  148  A    between atoms: _376  and  _379
REMARK  149  A    between atoms: _379  and  _380
REMARK  150  A    between atoms: _385  and  _386
REMARK  151  A    between atoms: _388  and  _390
REMARK  152  A    between atoms: _390  and  _391
REMARK  153  A    between atoms: _390  and  _393
REMARK  154  A    between atoms: _393  and  _394
REMARK  155  A    between atoms: _394  and  _395
REMARK  156  A    between atoms: _397  and  _399
REMARK  157  A    between atoms: _399  and  _400
REMARK  158  A    between atoms: _399  and  _402
REMARK  159  A    between atoms: _402  and  _403
REMARK  160  A    between atoms: _408  and  _409
REMARK  161  A    between atoms: _411  and  _413
REMARK  162  A    between atoms: _413  and  _414
REMARK  163  A    between atoms: _413  and  _416
REMARK  164  A    between atoms: _416  and  _417
REMARK  165  A    between atoms: _420  and  _422
REMARK  166  A    between atoms: _422  and  _423
REMARK  167  A    between atoms: _422  and  _425
REMARK  168  A    between atoms: _425  and  _426
REMARK  169  A    between atoms: _426  and  _427
REMARK  170  A    between atoms: _429  and  _431
REMARK  171  A    between atoms: _431  and  _432
REMARK  172  A    between atoms: _431  and  _434
REMARK  173  A    between atoms: _434  and  _435
REMARK  174  A    between atoms: _439  and  _440
REMARK  175  A    between atoms: _445  and  _447
REMARK  176  A    between atoms: _447  and  _448
REMARK  177  A    between atoms: _447  and  _450
REMARK  178  A    between atoms: _450  and  _451
REMARK  179  A    between atoms: _455  and  _456
REMARK  180  A    between atoms: _461  and  _463
REMARK  181  A    between atoms: _463  and  _464
REMARK  182  A    between atoms: _463  and  _466
REMARK  183  A    between atoms: _466  and  _467
REMARK  184  A    between atoms: _470  and  _472
REMARK  185  A    between atoms: _472  and  _473
REMARK  186  A    between atoms: _472  and  _475
REMARK  187  A    between atoms: _475  and  _476
REMARK  188  A    between atoms: _479  and  _481
REMARK  189  A    between atoms: _481  and  _482
REMARK  190  A    between atoms: _481  and  _484
REMARK  191  A    between atoms: _484  and  _485
REMARK  192  A    between atoms: _487  and  _489
REMARK  193  A    between atoms: _489  and  _490
REMARK  194  A    between atoms: _492  and  _494
REMARK  195  A    between atoms: _494  and  _495
REMARK  196  A    between atoms: _494  and  _497
REMARK  197  A    between atoms: _497  and  _498
REMARK  198  A    between atoms: _503  and  _504
REMARK  199  A    between atoms: _506  and  _508
REMARK  200  A    between atoms: _508  and  _509
REMARK  201  A    between atoms: _508  and  _511
REMARK  202  A    between atoms: _511  and  _512
REMARK  203  A    between atoms: _515  and  _517
REMARK  204  A    between atoms: _517  and  _518
REMARK  205  A    between atoms: _517  and  _520
REMARK  206  A    between atoms: _520  and  _521
REMARK  207  A    between atoms: _524  and  _526
REMARK  208  A    between atoms: _526  and  _527
REMARK  209  A    between atoms: _529  and  _531
REMARK  210  A    between atoms: _531  and  _532
REMARK  211  A    between atoms: _531  and  _534
REMARK  212  A    between atoms: _534  and  _535
REMARK  213  A    between atoms: _535  and  _536
REMARK  214  A    between atoms: _541  and  _543
REMARK  215  A    between atoms: _543  and  _544
REMARK  216  A    between atoms: _543  and  _546
REMARK  217  A    between atoms: _546  and  _547
REMARK  218  A    between atoms: _550  and  _552
REMARK  219  A    between atoms: _552  and  _553
REMARK  220  A    between atoms: _552  and  _555
REMARK  221  A    between atoms: _558  and  _560
REMARK  222  A    between atoms: _560  and  _561
REMARK  223  A    between atoms: _560  and  _563
REMARK  224  A    between atoms: _566  and  _568
REMARK  225  A    between atoms: _568  and  _569
REMARK  226  A    between atoms: _572  and  _574
REMARK  227  A    between atoms: _574  and  _575
REMARK  228  A    between atoms: _574  and  _577
REMARK  229  A    between atoms: _577  and  _578
REMARK  230  A    between atoms: _578  and  _579
REMARK  231  A    between atoms: _579  and  _580
REMARK  232  A    between atoms: _589  and  _591
REMARK  233  A    between atoms: _591  and  _592
REMARK  234  A    between atoms: _591  and  _594
REMARK  235  A    between atoms: _594  and  _595
REMARK  236  A    between atoms: _600  and  _602
REMARK  237  A    between atoms: _602  and  _603
REMARK  238  A    between atoms: _602  and  _605
REMARK  239  A    between atoms: _605  and  _606
REMARK  240  A    between atoms: _610  and  _611
REMARK  241  A    between atoms: _616  and  _618
REMARK  242  A    between atoms: _618  and  _619
REMARK  243  A    between atoms: _618  and  _621
REMARK  244  A    between atoms: _621  and  _622
REMARK  245  A    between atoms: _624  and  _626
REMARK  246  A    between atoms: _626  and  _627
REMARK  247  A    between atoms: _626  and  _629
REMARK  248  A    between atoms: _629  and  _630
REMARK  249  A    between atoms: _633  and  _635
REMARK  250  A    between atoms: _635  and  _636
REMARK  251  A    between atoms: _635  and  _638
REMARK  252  A    between atoms: _638  and  _639
REMARK  253  A    between atoms: _639  and  _640
REMARK  254  A    between atoms: _640  and  _641
REMARK                            x       y       z     vdW  Elec       q    Type
REMARK                         _______ _______ _______ _____ _____    ______ ____
ROOT
ATOM      1  O   HOH     1     -28.087 -12.193  17.396  0.00  0.00    +0.000 OA
ENDROOT
TORSDOF 0
REMARK  Name = ../refined-set-2016/3b2q/3b2q_pocket.pdb
REMARK  254 active torsions:
REMARK  status: ('A' for Active; 'I' for Inactive)
REMARK    1  A    between atoms: _2  and  _3
REMARK    2  A    between atoms: _8  and  _10
REMARK    3  A    between atoms: _10  and  _11
REMARK    4  A    between atoms: _10  and  _13
REMARK    5  A    between atoms: _13  and  _14
REMARK    6  A    between atoms: _17  and  _19
REMARK    7  A    between atoms: _19  and  _20
REMARK    8  A    between atoms: _19  and  _22
REMARK    9  A    between atoms: _22  and  _23
REMARK   10  A    between atoms: _29  and  _31
REMARK   11  A    between atoms: _31  and  _32
REMARK   12  A    between atoms: _31  and  _34
REMARK   13  A    between atoms: _34  and  _35
REMARK   14  A    between atoms: _37  and  _39
REMARK   15  A    between atoms: _39  and  _40
REMARK   16  A    between atoms: _43  and  _45
REMARK   17  A    between atoms: _45  and  _46
REMARK   18  A    between atoms: _45  and  _48
REMARK   19  A    between atoms: _48  and  _49
REMARK   20  A    between atoms: _51  and  _53
REMARK   21  A    between atoms: _53  and  _54
REMARK   22  A    between atoms: _56  and  _58
REMARK   23  A    between atoms: _58  and  _59
REMARK   24  A    between atoms: _58  and  _61
REMARK   25  A    between atoms: _61  and  _62
REMARK   26  A    between atoms: _65  and  _67
REMARK   27  A    between atoms: _67  and  _68
REMARK   28  A    between atoms: _67  and  _70
REMARK   29  A    between atoms: _70  and  _71
REMARK   30  A    between atoms: _74  and  _76
REMARK   31  A    between atoms: _76  and  _77
REMARK   32  A    between atoms: _76  and  _79
REMARK   33  A    between atoms: _79  and  _80
REMARK   34  A    between atoms: _82  and  _84
REMARK   35  A    between atoms: _84  and  _85
REMARK   36  A    between atoms: _84  and  _87
REMARK   37  A    between atoms: _87  and  _88
REMARK   38  A    between atoms: _88  and  _89
REMARK   39  A    between atoms: _92  and  _93
REMARK   40  A    between atoms: _99  and  _100
REMARK   41  A    between atoms: _105  and  _107
REMARK   42  A    between atoms: _107  and  _108
REMARK   43  A    between atoms: _107  and  _110
REMARK   44  A    between atoms: _110  and  _111
REMARK   45  A    between atoms: _114  and  _116
REMARK   46  A    between atoms: _116  and  _117
REMARK   47  A    between atoms: _116  and  _119
REMARK   48  A    between atoms: _119  and  _120
REMARK   49  A    between atoms: _123  and  _125
REMARK   50  A    between atoms: _125  and  _126
REMARK   51  A    between atoms: _125  and  _128
REMARK   52  A    between atoms: _128  and  _129
REMARK   53  A    between atoms: _131  and  _133
REMARK   54  A    between atoms: _133  and  _134
REMARK   55  A    between atoms: _136  and  _138
REMARK   56  A    between atoms: _138  and  _139
REMARK   57  A    between atoms: _138  and  _141
REMARK   58  A    between atoms: _141  and  _142
REMARK   59  A    between atoms: _147  and  _148
REMARK   60  A    between atoms: _150  and  _152
REMARK   61  A    between atoms: _152  and  _153
REMARK   62  A    between atoms: _152  and  _155
REMARK   63  A    between atoms: _155  and  _156
REMARK   64  A    between atoms: _159  and  _161
REMARK   65  A    between atoms: _161  and  _162
REMARK   66  A    between atoms: _161  and  _164
REMARK   67  A    between atoms: _164  and  _165
REMARK   68  A    between atoms: _168  and  _170
REMARK   69  A    between atoms: _170  and  _171
REMARK   70  A    between atoms: _173  and  _175
REMARK   71  A    between atoms: _175  and  _176
REMARK   72  A    between atoms: _175  and  _178
REMARK   73  A    between atoms: _178  and  _179
REMARK   74  A    between atoms: _179  and  _180
REMARK   75  A    between atoms: _185  and  _187
REMARK   76  A    between atoms: _187  and  _188
REMARK   77  A    between atoms: _187  and  _190
REMARK   78  A    between atoms: _190  and  _191
REMARK   79  A    between atoms: _194  and  _196
REMARK   80  A    between atoms: _196  and  _197
REMARK   81  A    between atoms: _196  and  _199
REMARK   82  A    between atoms: _202  and  _204
REMARK   83  A    between atoms: _204  and  _205
REMARK   84  A    between atoms: _204  and  _207
REMARK   85  A    between atoms: _210  and  _212
REMARK   86  A    between atoms: _212  and  _213
REMARK   87  A    between atoms: _216  and  _218
REMARK   88  A    between atoms: _218  and  _219
REMARK   89  A    between atoms: _218  and  _221
REMARK   90  A    between atoms: _221  and  _222
REMARK   91  A    between atoms: _222  and  _223
REMARK   92  A    between atoms: _223  and  _224
REMARK   93  A    between atoms: _233  and  _235
REMARK   94  A    between atoms: _235  and  _236
REMARK   95  A    between atoms: _235  and  _238
REMARK   96  A    between atoms: _238  and  _239
REMARK   97  A    between atoms: _239  and  _240
REMARK   98  A    between atoms: _243  and  _245
REMARK   99  A    between atoms: _245  and  _246
REMARK  100  A    between atoms: _245  and  _248
REMARK  101  A    between atoms: _248  and  _249
REMARK  102  A    between atoms: _252  and  _254
REMARK  103  A    between atoms: _254  and  _255
REMARK  104  A    between atoms: _254  and  _257
REMARK  105  A    between atoms: _257  and  _258
REMARK  106  A    between atoms: _263  and  _265
REMARK  107  A    between atoms: _265  and  _266
REMARK  108  A    between atoms: _265  and  _268
REMARK  109  A    between atoms: _268  and  _269
REMARK  110  A    between atoms: _269  and  _270
REMARK  111  A    between atoms: _270  and  _271
REMARK  112  A    between atoms: _281  and  _282
REMARK  113  A    between atoms: _287  and  _289
REMARK  114  A    between atoms: _289  and  _290
REMARK  115  A    between atoms: _289  and  _292
REMARK  116  A    between atoms: _292  and  _293
REMARK  117  A    between atoms: _298  and  _300
REMARK  118  A    between atoms: _300  and  _301
REMARK  119  A    between atoms: _300  and  _303
REMARK  120  A    between atoms: _303  and  _304
REMARK  121  A    between atoms: _308  and  _309
REMARK  122  A    between atoms: _314  and  _316
REMARK  123  A    between atoms: _316  and  _317
REMARK  124  A    between atoms: _316  and  _319
REMARK  125  A    between atoms: _319  and  _320
REMARK  126  A    between atoms: _322  and  _324
REMARK  127  A    between atoms: _324  and  _325
REMARK  128  A    between atoms: _324  and  _327
REMARK  129  A    between atoms: _327  and  _328
REMARK  130  A    between atoms: _331  and  _333
REMARK  131  A    between atoms: _333  and  _334
REMARK  132  A    between atoms: _333  and  _336
REMARK  133  A    between atoms: _336  and  _337
REMARK  134  A    between atoms: _337  and  _338
REMARK  135  A    between atoms: _338  and  _339
REMARK  136  A    between atoms: _348  and  _350
REMARK  137  A    between atoms: _350  and  _351
REMARK  138  A    between atoms: _350  and  _353
REMARK  139  A    between atoms: _353  and  _354
REMARK  140  A    between atoms: _360  and  _362
REMARK  141  A    between atoms: _362  and  _363
REMARK  142  A    between atoms: _362  and  _365
REMARK  143  A    between atoms: _365  and  _366
REMARK  144  A    between atoms: _368  and  _370
REMARK  145  A    between atoms: _370  and  _371
REMARK  146  A    between atoms: _374  and  _376
REMARK  147  A    between atoms: _376  and  _377
REMARK  148  A    between atoms: _376  and  _379
REMARK  149  A    between atoms: _379  and  _380
REMARK  150  A    between atoms: _385  and  _386
REMARK  151  A    between atoms: _388  and  _390
REMARK  152  A    between atoms: _390  and  _391
REMARK  153  A    between atoms: _390  and  _393
REMARK  154  A    between atoms: _393  and  _394
REMARK  155  A    between atoms: _394  and  _395
REMARK  156  A    between atoms: _397  and  _399
REMARK  157  A    between atoms: _399  and  _400
REMARK  158  A    between atoms: _399  and  _402
REMARK  159  A    between atoms: _402  and  _403
REMARK  160  A    between atoms: _408  and  _409
REMARK  161  A    between atoms: _411  and  _413
REMARK  162  A    between atoms: _413  and  _414
REMARK  163  A    between atoms: _413  and  _416
REMARK  164  A    between atoms: _416  and  _417
REMARK  165  A    between atoms: _420  and  _422
REMARK  166  A    between atoms: _422  and  _423
REMARK  167  A    between atoms: _422  and  _425
REMARK  168  A    between atoms: _425  and  _426
REMARK  169  A    between atoms: _426  and  _427
REMARK  170  A    between atoms: _429  and  _431
REMARK  171  A    between atoms: _431  and  _432
REMARK  172  A    between atoms: _431  and  _434
REMARK  173  A    between atoms: _434  and  _435
REMARK  174  A    between atoms: _439  and  _440
REMARK  175  A    between atoms: _445  and  _447
REMARK  176  A    between atoms: _447  and  _448
REMARK  177  A    between atoms: _447  and  _450
REMARK  178  A    between atoms: _450  and  _451
REMARK  179  A    between atoms: _455  and  _456
REMARK  180  A    between atoms: _461  and  _463
REMARK  181  A    between atoms: _463  and  _464
REMARK  182  A    between atoms: _463  and  _466
REMARK  183  A    between atoms: _466  and  _467
REMARK  184  A    between atoms: _470  and  _472
REMARK  185  A    between atoms: _472  and  _473
REMARK  186  A    between atoms: _472  and  _475
REMARK  187  A    between atoms: _475  and  _476
REMARK  188  A    between atoms: _479  and  _481
REMARK  189  A    between atoms: _481  and  _482
REMARK  190  A    between atoms: _481  and  _484
REMARK  191  A    between atoms: _484  and  _485
REMARK  192  A    between atoms: _487  and  _489
REMARK  193  A    between atoms: _489  and  _490
REMARK  194  A    between atoms: _492  and  _494
REMARK  195  A    between atoms: _494  and  _495
REMARK  196  A    between atoms: _494  and  _497
REMARK  197  A    between atoms: _497  and  _498
REMARK  198  A    between atoms: _503  and  _504
REMARK  199  A    between atoms: _506  and  _508
REMARK  200  A    between atoms: _508  and  _509
REMARK  201  A    between atoms: _508  and  _511
REMARK  202  A    between atoms: _511  and  _512
REMARK  203  A    between atoms: _515  and  _517
REMARK  204  A    between atoms: _517  and  _518
REMARK  205  A    between atoms: _517  and  _520
REMARK  206  A    between atoms: _520  and  _521
REMARK  207  A    between atoms: _524  and  _526
REMARK  208  A    between atoms: _526  and  _527
REMARK  209  A    between atoms: _529  and  _531
REMARK  210  A    between atoms: _531  and  _532
REMARK  211  A    between atoms: _531  and  _534
REMARK  212  A    between atoms: _534  and  _535
REMARK  213  A    between atoms: _535  and  _536
REMARK  214  A    between atoms: _541  and  _543
REMARK  215  A    between atoms: _543  and  _544
REMARK  216  A    between atoms: _543  and  _546
REMARK  217  A    between atoms: _546  and  _547
REMARK  218  A    between atoms: _550  and  _552
REMARK  219  A    between atoms: _552  and  _553
REMARK  220  A    between atoms: _552  and  _555
REMARK  221  A    between atoms: _558  and  _560
REMARK  222  A    between atoms: _560  and  _561
REMARK  223  A    between atoms: _560  and  _563
REMARK  224  A    between atoms: _566  and  _568
REMARK  225  A    between atoms: _568  and  _569
REMARK  226  A    between atoms: _572  and  _574
REMARK  227  A    between atoms: _574  and  _575
REMARK  228  A    between atoms: _574  and  _577
REMARK  229  A    between atoms: _577  and  _578
REMARK  230  A    between atoms: _578  and  _579
REMARK  231  A    between atoms: _579  and  _580
REMARK  232  A    between atoms: _589  and  _591
REMARK  233  A    between atoms: _591  and  _592
REMARK  234  A    between atoms: _591  and  _594
REMARK  235  A    between atoms: _594  and  _595
REMARK  236  A    between atoms: _600  and  _602
REMARK  237  A    between atoms: _602  and  _603
REMARK  238  A    between atoms: _602  and  _605
REMARK  239  A    between atoms: _605  and  _606
REMARK  240  A    between atoms: _610  and  _611
REMARK  241  A    between atoms: _616  and  _618
REMARK  242  A    between atoms: _618  and  _619
REMARK  243  A    between atoms: _618  and  _621
REMARK  244  A    between atoms: _621  and  _622
REMARK  245  A    between atoms: _624  and  _626
REMARK  246  A    between atoms: _626  and  _627
REMARK  247  A    between atoms: _626  and  _629
REMARK  248  A    between atoms: _629  and  _630
REMARK  249  A    between atoms: _633  and  _635
REMARK  250  A    between atoms: _635  and  _636
REMARK  251  A    between atoms: _635  and  _638
REMARK  252  A    between atoms: _638  and  _639
REMARK  253  A    between atoms: _639  and  _640
REMARK  254  A    between atoms: _640  and  _641
REMARK                            x       y       z     vdW  Elec       q    Type
REMARK                         _______ _______ _______ _____ _____    ______ ____
ROOT
ATOM      1  O   HOH     1     -27.259 -20.507  12.834  0.00  0.00    +0.000 OA
ENDROOT
TORSDOF 0
REMARK  Name = ../refined-set-2016/3b2q/3b2q_pocket.pdb
REMARK  254 active torsions:
REMARK  status: ('A' for Active; 'I' for Inactive)
REMARK    1  A    between atoms: _2  and  _3
REMARK    2  A    between atoms: _8  and  _10
REMARK    3  A    between atoms: _10  and  _11
REMARK    4  A    between atoms: _10  and  _13
REMARK    5  A    between atoms: _13  and  _14
REMARK    6  A    between atoms: _17  and  _19
REMARK    7  A    between atoms: _19  and  _20
REMARK    8  A    between atoms: _19  and  _22
REMARK    9  A    between atoms: _22  and  _23
REMARK   10  A    between atoms: _29  and  _31
REMARK   11  A    between atoms: _31  and  _32
REMARK   12  A    between atoms: _31  and  _34
REMARK   13  A    between atoms: _34  and  _35
REMARK   14  A    between atoms: _37  and  _39
REMARK   15  A    between atoms: _39  and  _40
REMARK   16  A    between atoms: _43  and  _45
REMARK   17  A    between atoms: _45  and  _46
REMARK   18  A    between atoms: _45  and  _48
REMARK   19  A    between atoms: _48  and  _49
REMARK   20  A    between atoms: _51  and  _53
REMARK   21  A    between atoms: _53  and  _54
REMARK   22  A    between atoms: _56  and  _58
REMARK   23  A    between atoms: _58  and  _59
REMARK   24  A    between atoms: _58  and  _61
REMARK   25  A    between atoms: _61  and  _62
REMARK   26  A    between atoms: _65  and  _67
REMARK   27  A    between atoms: _67  and  _68
REMARK   28  A    between atoms: _67  and  _70
REMARK   29  A    between atoms: _70  and  _71
REMARK   30  A    between atoms: _74  and  _76
REMARK   31  A    between atoms: _76  and  _77
REMARK   32  A    between atoms: _76  and  _79
REMARK   33  A    between atoms: _79  and  _80
REMARK   34  A    between atoms: _82  and  _84
REMARK   35  A    between atoms: _84  and  _85
REMARK   36  A    between atoms: _84  and  _87
REMARK   37  A    between atoms: _87  and  _88
REMARK   38  A    between atoms: _88  and  _89
REMARK   39  A    between atoms: _92  and  _93
REMARK   40  A    between atoms: _99  and  _100
REMARK   41  A    between atoms: _105  and  _107
REMARK   42  A    between atoms: _107  and  _108
REMARK   43  A    between atoms: _107  and  _110
REMARK   44  A    between atoms: _110  and  _111
REMARK   45  A    between atoms: _114  and  _116
REMARK   46  A    between atoms: _116  and  _117
REMARK   47  A    between atoms: _116  and  _119
REMARK   48  A    between atoms: _119  and  _120
REMARK   49  A    between atoms: _123  and  _125
REMARK   50  A    between atoms: _125  and  _126
REMARK   51  A    between atoms: _125  and  _128
REMARK   52  A    between atoms: _128  and  _129
REMARK   53  A    between atoms: _131  and  _133
REMARK   54  A    between atoms: _133  and  _134
REMARK   55  A    between atoms: _136  and  _138
REMARK   56  A    between atoms: _138  and  _139
REMARK   57  A    between atoms: _138  and  _141
REMARK   58  A    between atoms: _141  and  _142
REMARK   59  A    between atoms: _147  and  _148
REMARK   60  A    between atoms: _150  and  _152
REMARK   61  A    between atoms: _152  and  _153
REMARK   62  A    between atoms: _152  and  _155
REMARK   63  A    between atoms: _155  and  _156
REMARK   64  A    between atoms: _159  and  _161
REMARK   65  A    between atoms: _161  and  _162
REMARK   66  A    between atoms: _161  and  _164
REMARK   67  A    between atoms: _164  and  _165
REMARK   68  A    between atoms: _168  and  _170
REMARK   69  A    between atoms: _170  and  _171
REMARK   70  A    between atoms: _173  and  _175
REMARK   71  A    between atoms: _175  and  _176
REMARK   72  A    between atoms: _175  and  _178
REMARK   73  A    between atoms: _178  and  _179
REMARK   74  A    between atoms: _179  and  _180
REMARK   75  A    between atoms: _185  and  _187
REMARK   76  A    between atoms: _187  and  _188
REMARK   77  A    between atoms: _187  and  _190
REMARK   78  A    between atoms: _190  and  _191
REMARK   79  A    between atoms: _194  and  _196
REMARK   80  A    between atoms: _196  and  _197
REMARK   81  A    between atoms: _196  and  _199
REMARK   82  A    between atoms: _202  and  _204
REMARK   83  A    between atoms: _204  and  _205
REMARK   84  A    between atoms: _204  and  _207
REMARK   85  A    between atoms: _210  and  _212
REMARK   86  A    between atoms: _212  and  _213
REMARK   87  A    between atoms: _216  and  _218
REMARK   88  A    between atoms: _218  and  _219
REMARK   89  A    between atoms: _218  and  _221
REMARK   90  A    between atoms: _221  and  _222
REMARK   91  A    between atoms: _222  and  _223
REMARK   92  A    between atoms: _223  and  _224
REMARK   93  A    between atoms: _233  and  _235
REMARK   94  A    between atoms: _235  and  _236
REMARK   95  A    between atoms: _235  and  _238
REMARK   96  A    between atoms: _238  and  _239
REMARK   97  A    between atoms: _239  and  _240
REMARK   98  A    between atoms: _243  and  _245
REMARK   99  A    between atoms: _245  and  _246
REMARK  100  A    between atoms: _245  and  _248
REMARK  101  A    between atoms: _248  and  _249
REMARK  102  A    between atoms: _252  and  _254
REMARK  103  A    between atoms: _254  and  _255
REMARK  104  A    between atoms: _254  and  _257
REMARK  105  A    between atoms: _257  and  _258
REMARK  106  A    between atoms: _263  and  _265
REMARK  107  A    between atoms: _265  and  _266
REMARK  108  A    between atoms: _265  and  _268
REMARK  109  A    between atoms: _268  and  _269
REMARK  110  A    between atoms: _269  and  _270
REMARK  111  A    between atoms: _270  and  _271
REMARK  112  A    between atoms: _281  and  _282
REMARK  113  A    between atoms: _287  and  _289
REMARK  114  A    between atoms: _289  and  _290
REMARK  115  A    between atoms: _289  and  _292
REMARK  116  A    between atoms: _292  and  _293
REMARK  117  A    between atoms: _298  and  _300
REMARK  118  A    between atoms: _300  and  _301
REMARK  119  A    between atoms: _300  and  _303
REMARK  120  A    between atoms: _303  and  _304
REMARK  121  A    between atoms: _308  and  _309
REMARK  122  A    between atoms: _314  and  _316
REMARK  123  A    between atoms: _316  and  _317
REMARK  124  A    between atoms: _316  and  _319
REMARK  125  A    between atoms: _319  and  _320
REMARK  126  A    between atoms: _322  and  _324
REMARK  127  A    between atoms: _324  and  _325
REMARK  128  A    between atoms: _324  and  _327
REMARK  129  A    between atoms: _327  and  _328
REMARK  130  A    between atoms: _331  and  _333
REMARK  131  A    between atoms: _333  and  _334
REMARK  132  A    between atoms: _333  and  _336
REMARK  133  A    between atoms: _336  and  _337
REMARK  134  A    between atoms: _337  and  _338
REMARK  135  A    between atoms: _338  and  _339
REMARK  136  A    between atoms: _348  and  _350
REMARK  137  A    between atoms: _350  and  _351
REMARK  138  A    between atoms: _350  and  _353
REMARK  139  A    between atoms: _353  and  _354
REMARK  140  A    between atoms: _360  and  _362
REMARK  141  A    between atoms: _362  and  _363
REMARK  142  A    between atoms: _362  and  _365
REMARK  143  A    between atoms: _365  and  _366
REMARK  144  A    between atoms: _368  and  _370
REMARK  145  A    between atoms: _370  and  _371
REMARK  146  A    between atoms: _374  and  _376
REMARK  147  A    between atoms: _376  and  _377
REMARK  148  A    between atoms: _376  and  _379
REMARK  149  A    between atoms: _379  and  _380
REMARK  150  A    between atoms: _385  and  _386
REMARK  151  A    between atoms: _388  and  _390
REMARK  152  A    between atoms: _390  and  _391
REMARK  153  A    between atoms: _390  and  _393
REMARK  154  A    between atoms: _393  and  _394
REMARK  155  A    between atoms: _394  and  _395
REMARK  156  A    between atoms: _397  and  _399
REMARK  157  A    between atoms: _399  and  _400
REMARK  158  A    between atoms: _399  and  _402
REMARK  159  A    between atoms: _402  and  _403
REMARK  160  A    between atoms: _408  and  _409
REMARK  161  A    between atoms: _411  and  _413
REMARK  162  A    between atoms: _413  and  _414
REMARK  163  A    between atoms: _413  and  _416
REMARK  164  A    between atoms: _416  and  _417
REMARK  165  A    between atoms: _420  and  _422
REMARK  166  A    between atoms: _422  and  _423
REMARK  167  A    between atoms: _422  and  _425
REMARK  168  A    between atoms: _425  and  _426
REMARK  169  A    between atoms: _426  and  _427
REMARK  170  A    between atoms: _429  and  _431
REMARK  171  A    between atoms: _431  and  _432
REMARK  172  A    between atoms: _431  and  _434
REMARK  173  A    between atoms: _434  and  _435
REMARK  174  A    between atoms: _439  and  _440
REMARK  175  A    between atoms: _445  and  _447
REMARK  176  A    between atoms: _447  and  _448
REMARK  177  A    between atoms: _447  and  _450
REMARK  178  A    between atoms: _450  and  _451
REMARK  179  A    between atoms: _455  and  _456
REMARK  180  A    between atoms: _461  and  _463
REMARK  181  A    between atoms: _463  and  _464
REMARK  182  A    between atoms: _463  and  _466
REMARK  183  A    between atoms: _466  and  _467
REMARK  184  A    between atoms: _470  and  _472
REMARK  185  A    between atoms: _472  and  _473
REMARK  186  A    between atoms: _472  and  _475
REMARK  187  A    between atoms: _475  and  _476
REMARK  188  A    between atoms: _479  and  _481
REMARK  189  A    between atoms: _481  and  _482
REMARK  190  A    between atoms: _481  and  _484
REMARK  191  A    between atoms: _484  and  _485
REMARK  192  A    between atoms: _487  and  _489
REMARK  193  A    between atoms: _489  and  _490
REMARK  194  A    between atoms: _492  and  _494
REMARK  195  A    between atoms: _494  and  _495
REMARK  196  A    between atoms: _494  and  _497
REMARK  197  A    between atoms: _497  and  _498
REMARK  198  A    between atoms: _503  and  _504
REMARK  199  A    between atoms: _506  and  _508
REMARK  200  A    between atoms: _508  and  _509
REMARK  201  A    between atoms: _508  and  _511
REMARK  202  A    between atoms: _511  and  _512
REMARK  203  A    between atoms: _515  and  _517
REMARK  204  A    between atoms: _517  and  _518
REMARK  205  A    between atoms: _517  and  _520
REMARK  206  A    between atoms: _520  and  _521
REMARK  207  A    between atoms: _524  and  _526
REMARK  208  A    between atoms: _526  and  _527
REMARK  209  A    between atoms: _529  and  _531
REMARK  210  A    between atoms: _531  and  _532
REMARK  211  A    between atoms: _531  and  _534
REMARK  212  A    between atoms: _534  and  _535
REMARK  213  A    between atoms: _535  and  _536
REMARK  214  A    between atoms: _541  and  _543
REMARK  215  A    between atoms: _543  and  _544
REMARK  216  A    between atoms: _543  and  _546
REMARK  217  A    between atoms: _546  and  _547
REMARK  218  A    between atoms: _550  and  _552
REMARK  219  A    between atoms: _552  and  _553
REMARK  220  A    between atoms: _552  and  _555
REMARK  221  A    between atoms: _558  and  _560
REMARK  222  A    between atoms: _560  and  _561
REMARK  223  A    between atoms: _560  and  _563
REMARK  224  A    between atoms: _566  and  _568
REMARK  225  A    between atoms: _568  and  _569
REMARK  226  A    between atoms: _572  and  _574
REMARK  227  A    between atoms: _574  and  _575
REMARK  228  A    between atoms: _574  and  _577
REMARK  229  A    between atoms: _577  and  _578
REMARK  230  A    between atoms: _578  and  _579
REMARK  231  A    between atoms: _579  and  _580
REMARK  232  A    between atoms: _589  and  _591
REMARK  233  A    between atoms: _591  and  _592
REMARK  234  A    between atoms: _591  and  _594
REMARK  235  A    between atoms: _594  and  _595
REMARK  236  A    between atoms: _600  and  _602
REMARK  237  A    between atoms: _602  and  _603
REMARK  238  A    between atoms: _602  and  _605
REMARK  239  A    between atoms: _605  and  _606
REMARK  240  A    between atoms: _610  and  _611
REMARK  241  A    between atoms: _616  and  _618
REMARK  242  A    between atoms: _618  and  _619
REMARK  243  A    between atoms: _618  and  _621
REMARK  244  A    between atoms: _621  and  _622
REMARK  245  A    between atoms: _624  and  _626
REMARK  246  A    between atoms: _626  and  _627
REMARK  247  A    between atoms: _626  and  _629
REMARK  248  A    between atoms: _629  and  _630
REMARK  249  A    between atoms: _633  and  _635
REMARK  250  A    between atoms: _635  and  _636
REMARK  251  A    between atoms: _635  and  _638
REMARK  252  A    between atoms: _638  and  _639
REMARK  253  A    between atoms: _639  and  _640
REMARK  254  A    between atoms: _640  and  _641
REMARK                            x       y       z     vdW  Elec       q    Type
REMARK                         _______ _______ _______ _____ _____    ______ ____
ROOT
ATOM      1  O   HOH     1     -21.382  -3.894  17.769  0.00  0.00    +0.000 OA
ENDROOT
TORSDOF 0
REMARK  Name = ../refined-set-2016/3b2q/3b2q_pocket.pdb
REMARK  254 active torsions:
REMARK  status: ('A' for Active; 'I' for Inactive)
REMARK    1  A    between atoms: _2  and  _3
REMARK    2  A    between atoms: _8  and  _10
REMARK    3  A    between atoms: _10  and  _11
REMARK    4  A    between atoms: _10  and  _13
REMARK    5  A    between atoms: _13  and  _14
REMARK    6  A    between atoms: _17  and  _19
REMARK    7  A    between atoms: _19  and  _20
REMARK    8  A    between atoms: _19  and  _22
REMARK    9  A    between atoms: _22  and  _23
REMARK   10  A    between atoms: _29  and  _31
REMARK   11  A    between atoms: _31  and  _32
REMARK   12  A    between atoms: _31  and  _34
REMARK   13  A    between atoms: _34  and  _35
REMARK   14  A    between atoms: _37  and  _39
REMARK   15  A    between atoms: _39  and  _40
REMARK   16  A    between atoms: _43  and  _45
REMARK   17  A    between atoms: _45  and  _46
REMARK   18  A    between atoms: _45  and  _48
REMARK   19  A    between atoms: _48  and  _49
REMARK   20  A    between atoms: _51  and  _53
REMARK   21  A    between atoms: _53  and  _54
REMARK   22  A    between atoms: _56  and  _58
REMARK   23  A    between atoms: _58  and  _59
REMARK   24  A    between atoms: _58  and  _61
REMARK   25  A    between atoms: _61  and  _62
REMARK   26  A    between atoms: _65  and  _67
REMARK   27  A    between atoms: _67  and  _68
REMARK   28  A    between atoms: _67  and  _70
REMARK   29  A    between atoms: _70  and  _71
REMARK   30  A    between atoms: _74  and  _76
REMARK   31  A    between atoms: _76  and  _77
REMARK   32  A    between atoms: _76  and  _79
REMARK   33  A    between atoms: _79  and  _80
REMARK   34  A    between atoms: _82  and  _84
REMARK   35  A    between atoms: _84  and  _85
REMARK   36  A    between atoms: _84  and  _87
REMARK   37  A    between atoms: _87  and  _88
REMARK   38  A    between atoms: _88  and  _89
REMARK   39  A    between atoms: _92  and  _93
REMARK   40  A    between atoms: _99  and  _100
REMARK   41  A    between atoms: _105  and  _107
REMARK   42  A    between atoms: _107  and  _108
REMARK   43  A    between atoms: _107  and  _110
REMARK   44  A    between atoms: _110  and  _111
REMARK   45  A    between atoms: _114  and  _116
REMARK   46  A    between atoms: _116  and  _117
REMARK   47  A    between atoms: _116  and  _119
REMARK   48  A    between atoms: _119  and  _120
REMARK   49  A    between atoms: _123  and  _125
REMARK   50  A    between atoms: _125  and  _126
REMARK   51  A    between atoms: _125  and  _128
REMARK   52  A    between atoms: _128  and  _129
REMARK   53  A    between atoms: _131  and  _133
REMARK   54  A    between atoms: _133  and  _134
REMARK   55  A    between atoms: _136  and  _138
REMARK   56  A    between atoms: _138  and  _139
REMARK   57  A    between atoms: _138  and  _141
REMARK   58  A    between atoms: _141  and  _142
REMARK   59  A    between atoms: _147  and  _148
REMARK   60  A    between atoms: _150  and  _152
REMARK   61  A    between atoms: _152  and  _153
REMARK   62  A    between atoms: _152  and  _155
REMARK   63  A    between atoms: _155  and  _156
REMARK   64  A    between atoms: _159  and  _161
REMARK   65  A    between atoms: _161  and  _162
REMARK   66  A    between atoms: _161  and  _164
REMARK   67  A    between atoms: _164  and  _165
REMARK   68  A    between atoms: _168  and  _170
REMARK   69  A    between atoms: _170  and  _171
REMARK   70  A    between atoms: _173  and  _175
REMARK   71  A    between atoms: _175  and  _176
REMARK   72  A    between atoms: _175  and  _178
REMARK   73  A    between atoms: _178  and  _179
REMARK   74  A    between atoms: _179  and  _180
REMARK   75  A    between atoms: _185  and  _187
REMARK   76  A    between atoms: _187  and  _188
REMARK   77  A    between atoms: _187  and  _190
REMARK   78  A    between atoms: _190  and  _191
REMARK   79  A    between atoms: _194  and  _196
REMARK   80  A    between atoms: _196  and  _197
REMARK   81  A    between atoms: _196  and  _199
REMARK   82  A    between atoms: _202  and  _204
REMARK   83  A    between atoms: _204  and  _205
REMARK   84  A    between atoms: _204  and  _207
REMARK   85  A    between atoms: _210  and  _212
REMARK   86  A    between atoms: _212  and  _213
REMARK   87  A    between atoms: _216  and  _218
REMARK   88  A    between atoms: _218  and  _219
REMARK   89  A    between atoms: _218  and  _221
REMARK   90  A    between atoms: _221  and  _222
REMARK   91  A    between atoms: _222  and  _223
REMARK   92  A    between atoms: _223  and  _224
REMARK   93  A    between atoms: _233  and  _235
REMARK   94  A    between atoms: _235  and  _236
REMARK   95  A    between atoms: _235  and  _238
REMARK   96  A    between atoms: _238  and  _239
REMARK   97  A    between atoms: _239  and  _240
REMARK   98  A    between atoms: _243  and  _245
REMARK   99  A    between atoms: _245  and  _246
REMARK  100  A    between atoms: _245  and  _248
REMARK  101  A    between atoms: _248  and  _249
REMARK  102  A    between atoms: _252  and  _254
REMARK  103  A    between atoms: _254  and  _255
REMARK  104  A    between atoms: _254  and  _257
REMARK  105  A    between atoms: _257  and  _258
REMARK  106  A    between atoms: _263  and  _265
REMARK  107  A    between atoms: _265  and  _266
REMARK  108  A    between atoms: _265  and  _268
REMARK  109  A    between atoms: _268  and  _269
REMARK  110  A    between atoms: _269  and  _270
REMARK  111  A    between atoms: _270  and  _271
REMARK  112  A    between atoms: _281  and  _282
REMARK  113  A    between atoms: _287  and  _289
REMARK  114  A    between atoms: _289  and  _290
REMARK  115  A    between atoms: _289  and  _292
REMARK  116  A    between atoms: _292  and  _293
REMARK  117  A    between atoms: _298  and  _300
REMARK  118  A    between atoms: _300  and  _301
REMARK  119  A    between atoms: _300  and  _303
REMARK  120  A    between atoms: _303  and  _304
REMARK  121  A    between atoms: _308  and  _309
REMARK  122  A    between atoms: _314  and  _316
REMARK  123  A    between atoms: _316  and  _317
REMARK  124  A    between atoms: _316  and  _319
REMARK  125  A    between atoms: _319  and  _320
REMARK  126  A    between atoms: _322  and  _324
REMARK  127  A    between atoms: _324  and  _325
REMARK  128  A    between atoms: _324  and  _327
REMARK  129  A    between atoms: _327  and  _328
REMARK  130  A    between atoms: _331  and  _333
REMARK  131  A    between atoms: _333  and  _334
REMARK  132  A    between atoms: _333  and  _336
REMARK  133  A    between atoms: _336  and  _337
REMARK  134  A    between atoms: _337  and  _338
REMARK  135  A    between atoms: _338  and  _339
REMARK  136  A    between atoms: _348  and  _350
REMARK  137  A    between atoms: _350  and  _351
REMARK  138  A    between atoms: _350  and  _353
REMARK  139  A    between atoms: _353  and  _354
REMARK  140  A    between atoms: _360  and  _362
REMARK  141  A    between atoms: _362  and  _363
REMARK  142  A    between atoms: _362  and  _365
REMARK  143  A    between atoms: _365  and  _366
REMARK  144  A    between atoms: _368  and  _370
REMARK  145  A    between atoms: _370  and  _371
REMARK  146  A    between atoms: _374  and  _376
REMARK  147  A    between atoms: _376  and  _377
REMARK  148  A    between atoms: _376  and  _379
REMARK  149  A    between atoms: _379  and  _380
REMARK  150  A    between atoms: _385  and  _386
REMARK  151  A    between atoms: _388  and  _390
REMARK  152  A    between atoms: _390  and  _391
REMARK  153  A    between atoms: _390  and  _393
REMARK  154  A    between atoms: _393  and  _394
REMARK  155  A    between atoms: _394  and  _395
REMARK  156  A    between atoms: _397  and  _399
REMARK  157  A    between atoms: _399  and  _400
REMARK  158  A    between atoms: _399  and  _402
REMARK  159  A    between atoms: _402  and  _403
REMARK  160  A    between atoms: _408  and  _409
REMARK  161  A    between atoms: _411  and  _413
REMARK  162  A    between atoms: _413  and  _414
REMARK  163  A    between atoms: _413  and  _416
REMARK  164  A    between atoms: _416  and  _417
REMARK  165  A    between atoms: _420  and  _422
REMARK  166  A    between atoms: _422  and  _423
REMARK  167  A    between atoms: _422  and  _425
REMARK  168  A    between atoms: _425  and  _426
REMARK  169  A    between atoms: _426  and  _427
REMARK  170  A    between atoms: _429  and  _431
REMARK  171  A    between atoms: _431  and  _432
REMARK  172  A    between atoms: _431  and  _434
REMARK  173  A    between atoms: _434  and  _435
REMARK  174  A    between atoms: _439  and  _440
REMARK  175  A    between atoms: _445  and  _447
REMARK  176  A    between atoms: _447  and  _448
REMARK  177  A    between atoms: _447  and  _450
REMARK  178  A    between atoms: _450  and  _451
REMARK  179  A    between atoms: _455  and  _456
REMARK  180  A    between atoms: _461  and  _463
REMARK  181  A    between atoms: _463  and  _464
REMARK  182  A    between atoms: _463  and  _466
REMARK  183  A    between atoms: _466  and  _467
REMARK  184  A    between atoms: _470  and  _472
REMARK  185  A    between atoms: _472  and  _473
REMARK  186  A    between atoms: _472  and  _475
REMARK  187  A    between atoms: _475  and  _476
REMARK  188  A    between atoms: _479  and  _481
REMARK  189  A    between atoms: _481  and  _482
REMARK  190  A    between atoms: _481  and  _484
REMARK  191  A    between atoms: _484  and  _485
REMARK  192  A    between atoms: _487  and  _489
REMARK  193  A    between atoms: _489  and  _490
REMARK  194  A    between atoms: _492  and  _494
REMARK  195  A    between atoms: _494  and  _495
REMARK  196  A    between atoms: _494  and  _497
REMARK  197  A    between atoms: _497  and  _498
REMARK  198  A    between atoms: _503  and  _504
REMARK  199  A    between atoms: _506  and  _508
REMARK  200  A    between atoms: _508  and  _509
REMARK  201  A    between atoms: _508  and  _511
REMARK  202  A    between atoms: _511  and  _512
REMARK  203  A    between atoms: _515  and  _517
REMARK  204  A    between atoms: _517  and  _518
REMARK  205  A    between atoms: _517  and  _520
REMARK  206  A    between atoms: _520  and  _521
REMARK  207  A    between atoms: _524  and  _526
REMARK  208  A    between atoms: _526  and  _527
REMARK  209  A    between atoms: _529  and  _531
REMARK  210  A    between atoms: _531  and  _532
REMARK  211  A    between atoms: _531  and  _534
REMARK  212  A    between atoms: _534  and  _535
REMARK  213  A    between atoms: _535  and  _536
REMARK  214  A    between atoms: _541  and  _543
REMARK  215  A    between atoms: _543  and  _544
REMARK  216  A    between atoms: _543  and  _546
REMARK  217  A    between atoms: _546  and  _547
REMARK  218  A    between atoms: _550  and  _552
REMARK  219  A    between atoms: _552  and  _553
REMARK  220  A    between atoms: _552  and  _555
REMARK  221  A    between atoms: _558  and  _560
REMARK  222  A    between atoms: _560  and  _561
REMARK  223  A    between atoms: _560  and  _563
REMARK  224  A    between atoms: _566  and  _568
REMARK  225  A    between atoms: _568  and  _569
REMARK  226  A    between atoms: _572  and  _574
REMARK  227  A    between atoms: _574  and  _575
REMARK  228  A    between atoms: _574  and  _577
REMARK  229  A    between atoms: _577  and  _578
REMARK  230  A    between atoms: _578  and  _579
REMARK  231  A    between atoms: _579  and  _580
REMARK  232  A    between atoms: _589  and  _591
REMARK  233  A    between atoms: _591  and  _592
REMARK  234  A    between atoms: _591  and  _594
REMARK  235  A    between atoms: _594  and  _595
REMARK  236  A    between atoms: _600  and  _602
REMARK  237  A    between atoms: _602  and  _603
REMARK  238  A    between atoms: _602  and  _605
REMARK  239  A    between atoms: _605  and  _606
REMARK  240  A    between atoms: _610  and  _611
REMARK  241  A    between atoms: _616  and  _618
REMARK  242  A    between atoms: _618  and  _619
REMARK  243  A    between atoms: _618  and  _621
REMARK  244  A    between atoms: _621  and  _622
REMARK  245  A    between atoms: _624  and  _626
REMARK  246  A    between atoms: _626  and  _627
REMARK  247  A    between atoms: _626  and  _629
REMARK  248  A    between atoms: _629  and  _630
REMARK  249  A    between atoms: _633  and  _635
REMARK  250  A    between atoms: _635  and  _636
REMARK  251  A    between atoms: _635  and  _638
REMARK  252  A    between atoms: _638  and  _639
REMARK  253  A    between atoms: _639  and  _640
REMARK  254  A    between atoms: _640  and  _641
REMARK                            x       y       z     vdW  Elec       q    Type
REMARK                         _______ _______ _______ _____ _____    ______ ____
ROOT
ATOM      1  O   HOH     1     -28.144 -23.294  12.517  0.00  0.00    +0.000 OA
ENDROOT
TORSDOF 0
REMARK  Name = ../refined-set-2016/3b2q/3b2q_pocket.pdb
REMARK  254 active torsions:
REMARK  status: ('A' for Active; 'I' for Inactive)
REMARK    1  A    between atoms: _2  and  _3
REMARK    2  A    between atoms: _8  and  _10
REMARK    3  A    between atoms: _10  and  _11
REMARK    4  A    between atoms: _10  and  _13
REMARK    5  A    between atoms: _13  and  _14
REMARK    6  A    between atoms: _17  and  _19
REMARK    7  A    between atoms: _19  and  _20
REMARK    8  A    between atoms: _19  and  _22
REMARK    9  A    between atoms: _22  and  _23
REMARK   10  A    between atoms: _29  and  _31
REMARK   11  A    between atoms: _31  and  _32
REMARK   12  A    between atoms: _31  and  _34
REMARK   13  A    between atoms: _34  and  _35
REMARK   14  A    between atoms: _37  and  _39
REMARK   15  A    between atoms: _39  and  _40
REMARK   16  A    between atoms: _43  and  _45
REMARK   17  A    between atoms: _45  and  _46
REMARK   18  A    between atoms: _45  and  _48
REMARK   19  A    between atoms: _48  and  _49
REMARK   20  A    between atoms: _51  and  _53
REMARK   21  A    between atoms: _53  and  _54
REMARK   22  A    between atoms: _56  and  _58
REMARK   23  A    between atoms: _58  and  _59
REMARK   24  A    between atoms: _58  and  _61
REMARK   25  A    between atoms: _61  and  _62
REMARK   26  A    between atoms: _65  and  _67
REMARK   27  A    between atoms: _67  and  _68
REMARK   28  A    between atoms: _67  and  _70
REMARK   29  A    between atoms: _70  and  _71
REMARK   30  A    between atoms: _74  and  _76
REMARK   31  A    between atoms: _76  and  _77
REMARK   32  A    between atoms: _76  and  _79
REMARK   33  A    between atoms: _79  and  _80
REMARK   34  A    between atoms: _82  and  _84
REMARK   35  A    between atoms: _84  and  _85
REMARK   36  A    between atoms: _84  and  _87
REMARK   37  A    between atoms: _87  and  _88
REMARK   38  A    between atoms: _88  and  _89
REMARK   39  A    between atoms: _92  and  _93
REMARK   40  A    between atoms: _99  and  _100
REMARK   41  A    between atoms: _105  and  _107
REMARK   42  A    between atoms: _107  and  _108
REMARK   43  A    between atoms: _107  and  _110
REMARK   44  A    between atoms: _110  and  _111
REMARK   45  A    between atoms: _114  and  _116
REMARK   46  A    between atoms: _116  and  _117
REMARK   47  A    between atoms: _116  and  _119
REMARK   48  A    between atoms: _119  and  _120
REMARK   49  A    between atoms: _123  and  _125
REMARK   50  A    between atoms: _125  and  _126
REMARK   51  A    between atoms: _125  and  _128
REMARK   52  A    between atoms: _128  and  _129
REMARK   53  A    between atoms: _131  and  _133
REMARK   54  A    between atoms: _133  and  _134
REMARK   55  A    between atoms: _136  and  _138
REMARK   56  A    between atoms: _138  and  _139
REMARK   57  A    between atoms: _138  and  _141
REMARK   58  A    between atoms: _141  and  _142
REMARK   59  A    between atoms: _147  and  _148
REMARK   60  A    between atoms: _150  and  _152
REMARK   61  A    between atoms: _152  and  _153
REMARK   62  A    between atoms: _152  and  _155
REMARK   63  A    between atoms: _155  and  _156
REMARK   64  A    between atoms: _159  and  _161
REMARK   65  A    between atoms: _161  and  _162
REMARK   66  A    between atoms: _161  and  _164
REMARK   67  A    between atoms: _164  and  _165
REMARK   68  A    between atoms: _168  and  _170
REMARK   69  A    between atoms: _170  and  _171
REMARK   70  A    between atoms: _173  and  _175
REMARK   71  A    between atoms: _175  and  _176
REMARK   72  A    between atoms: _175  and  _178
REMARK   73  A    between atoms: _178  and  _179
REMARK   74  A    between atoms: _179  and  _180
REMARK   75  A    between atoms: _185  and  _187
REMARK   76  A    between atoms: _187  and  _188
REMARK   77  A    between atoms: _187  and  _190
REMARK   78  A    between atoms: _190  and  _191
REMARK   79  A    between atoms: _194  and  _196
REMARK   80  A    between atoms: _196  and  _197
REMARK   81  A    between atoms: _196  and  _199
REMARK   82  A    between atoms: _202  and  _204
REMARK   83  A    between atoms: _204  and  _205
REMARK   84  A    between atoms: _204  and  _207
REMARK   85  A    between atoms: _210  and  _212
REMARK   86  A    between atoms: _212  and  _213
REMARK   87  A    between atoms: _216  and  _218
REMARK   88  A    between atoms: _218  and  _219
REMARK   89  A    between atoms: _218  and  _221
REMARK   90  A    between atoms: _221  and  _222
REMARK   91  A    between atoms: _222  and  _223
REMARK   92  A    between atoms: _223  and  _224
REMARK   93  A    between atoms: _233  and  _235
REMARK   94  A    between atoms: _235  and  _236
REMARK   95  A    between atoms: _235  and  _238
REMARK   96  A    between atoms: _238  and  _239
REMARK   97  A    between atoms: _239  and  _240
REMARK   98  A    between atoms: _243  and  _245
REMARK   99  A    between atoms: _245  and  _246
REMARK  100  A    between atoms: _245  and  _248
REMARK  101  A    between atoms: _248  and  _249
REMARK  102  A    between atoms: _252  and  _254
REMARK  103  A    between atoms: _254  and  _255
REMARK  104  A    between atoms: _254  and  _257
REMARK  105  A    between atoms: _257  and  _258
REMARK  106  A    between atoms: _263  and  _265
REMARK  107  A    between atoms: _265  and  _266
REMARK  108  A    between atoms: _265  and  _268
REMARK  109  A    between atoms: _268  and  _269
REMARK  110  A    between atoms: _269  and  _270
REMARK  111  A    between atoms: _270  and  _271
REMARK  112  A    between atoms: _281  and  _282
REMARK  113  A    between atoms: _287  and  _289
REMARK  114  A    between atoms: _289  and  _290
REMARK  115  A    between atoms: _289  and  _292
REMARK  116  A    between atoms: _292  and  _293
REMARK  117  A    between atoms: _298  and  _300
REMARK  118  A    between atoms: _300  and  _301
REMARK  119  A    between atoms: _300  and  _303
REMARK  120  A    between atoms: _303  and  _304
REMARK  121  A    between atoms: _308  and  _309
REMARK  122  A    between atoms: _314  and  _316
REMARK  123  A    between atoms: _316  and  _317
REMARK  124  A    between atoms: _316  and  _319
REMARK  125  A    between atoms: _319  and  _320
REMARK  126  A    between atoms: _322  and  _324
REMARK  127  A    between atoms: _324  and  _325
REMARK  128  A    between atoms: _324  and  _327
REMARK  129  A    between atoms: _327  and  _328
REMARK  130  A    between atoms: _331  and  _333
REMARK  131  A    between atoms: _333  and  _334
REMARK  132  A    between atoms: _333  and  _336
REMARK  133  A    between atoms: _336  and  _337
REMARK  134  A    between atoms: _337  and  _338
REMARK  135  A    between atoms: _338  and  _339
REMARK  136  A    between atoms: _348  and  _350
REMARK  137  A    between atoms: _350  and  _351
REMARK  138  A    between atoms: _350  and  _353
REMARK  139  A    between atoms: _353  and  _354
REMARK  140  A    between atoms: _360  and  _362
REMARK  141  A    between atoms: _362  and  _363
REMARK  142  A    between atoms: _362  and  _365
REMARK  143  A    between atoms: _365  and  _366
REMARK  144  A    between atoms: _368  and  _370
REMARK  145  A    between atoms: _370  and  _371
REMARK  146  A    between atoms: _374  and  _376
REMARK  147  A    between atoms: _376  and  _377
REMARK  148  A    between atoms: _376  and  _379
REMARK  149  A    between atoms: _379  and  _380
REMARK  150  A    between atoms: _385  and  _386
REMARK  151  A    between atoms: _388  and  _390
REMARK  152  A    between atoms: _390  and  _391
REMARK  153  A    between atoms: _390  and  _393
REMARK  154  A    between atoms: _393  and  _394
REMARK  155  A    between atoms: _394  and  _395
REMARK  156  A    between atoms: _397  and  _399
REMARK  157  A    between atoms: _399  and  _400
REMARK  158  A    between atoms: _399  and  _402
REMARK  159  A    between atoms: _402  and  _403
REMARK  160  A    between atoms: _408  and  _409
REMARK  161  A    between atoms: _411  and  _413
REMARK  162  A    between atoms: _413  and  _414
REMARK  163  A    between atoms: _413  and  _416
REMARK  164  A    between atoms: _416  and  _417
REMARK  165  A    between atoms: _420  and  _422
REMARK  166  A    between atoms: _422  and  _423
REMARK  167  A    between atoms: _422  and  _425
REMARK  168  A    between atoms: _425  and  _426
REMARK  169  A    between atoms: _426  and  _427
REMARK  170  A    between atoms: _429  and  _431
REMARK  171  A    between atoms: _431  and  _432
REMARK  172  A    between atoms: _431  and  _434
REMARK  173  A    between atoms: _434  and  _435
REMARK  174  A    between atoms: _439  and  _440
REMARK  175  A    between atoms: _445  and  _447
REMARK  176  A    between atoms: _447  and  _448
REMARK  177  A    between atoms: _447  and  _450
REMARK  178  A    between atoms: _450  and  _451
REMARK  179  A    between atoms: _455  and  _456
REMARK  180  A    between atoms: _461  and  _463
REMARK  181  A    between atoms: _463  and  _464
REMARK  182  A    between atoms: _463  and  _466
REMARK  183  A    between atoms: _466  and  _467
REMARK  184  A    between atoms: _470  and  _472
REMARK  185  A    between atoms: _472  and  _473
REMARK  186  A    between atoms: _472  and  _475
REMARK  187  A    between atoms: _475  and  _476
REMARK  188  A    between atoms: _479  and  _481
REMARK  189  A    between atoms: _481  and  _482
REMARK  190  A    between atoms: _481  and  _484
REMARK  191  A    between atoms: _484  and  _485
REMARK  192  A    between atoms: _487  and  _489
REMARK  193  A    between atoms: _489  and  _490
REMARK  194  A    between atoms: _492  and  _494
REMARK  195  A    between atoms: _494  and  _495
REMARK  196  A    between atoms: _494  and  _497
REMARK  197  A    between atoms: _497  and  _498
REMARK  198  A    between atoms: _503  and  _504
REMARK  199  A    between atoms: _506  and  _508
REMARK  200  A    between atoms: _508  and  _509
REMARK  201  A    between atoms: _508  and  _511
REMARK  202  A    between atoms: _511  and  _512
REMARK  203  A    between atoms: _515  and  _517
REMARK  204  A    between atoms: _517  and  _518
REMARK  205  A    between atoms: _517  and  _520
REMARK  206  A    between atoms: _520  and  _521
REMARK  207  A    between atoms: _524  and  _526
REMARK  208  A    between atoms: _526  and  _527
REMARK  209  A    between atoms: _529  and  _531
REMARK  210  A    between atoms: _531  and  _532
REMARK  211  A    between atoms: _531  and  _534
REMARK  212  A    between atoms: _534  and  _535
REMARK  213  A    between atoms: _535  and  _536
REMARK  214  A    between atoms: _541  and  _543
REMARK  215  A    between atoms: _543  and  _544
REMARK  216  A    between atoms: _543  and  _546
REMARK  217  A    between atoms: _546  and  _547
REMARK  218  A    between atoms: _550  and  _552
REMARK  219  A    between atoms: _552  and  _553
REMARK  220  A    between atoms: _552  and  _555
REMARK  221  A    between atoms: _558  and  _560
REMARK  222  A    between atoms: _560  and  _561
REMARK  223  A    between atoms: _560  and  _563
REMARK  224  A    between atoms: _566  and  _568
REMARK  225  A    between atoms: _568  and  _569
REMARK  226  A    between atoms: _572  and  _574
REMARK  227  A    between atoms: _574  and  _575
REMARK  228  A    between atoms: _574  and  _577
REMARK  229  A    between atoms: _577  and  _578
REMARK  230  A    between atoms: _578  and  _579
REMARK  231  A    between atoms: _579  and  _580
REMARK  232  A    between atoms: _589  and  _591
REMARK  233  A    between atoms: _591  and  _592
REMARK  234  A    between atoms: _591  and  _594
REMARK  235  A    between atoms: _594  and  _595
REMARK  236  A    between atoms: _600  and  _602
REMARK  237  A    between atoms: _602  and  _603
REMARK  238  A    between atoms: _602  and  _605
REMARK  239  A    between atoms: _605  and  _606
REMARK  240  A    between atoms: _610  and  _611
REMARK  241  A    between atoms: _616  and  _618
REMARK  242  A    between atoms: _618  and  _619
REMARK  243  A    between atoms: _618  and  _621
REMARK  244  A    between atoms: _621  and  _622
REMARK  245  A    between atoms: _624  and  _626
REMARK  246  A    between atoms: _626  and  _627
REMARK  247  A    between atoms: _626  and  _629
REMARK  248  A    between atoms: _629  and  _630
REMARK  249  A    between atoms: _633  and  _635
REMARK  250  A    between atoms: _635  and  _636
REMARK  251  A    between atoms: _635  and  _638
REMARK  252  A    between atoms: _638  and  _639
REMARK  253  A    between atoms: _639  and  _640
REMARK  254  A    between atoms: _640  and  _641
REMARK                            x       y       z     vdW  Elec       q    Type
REMARK                         _______ _______ _______ _____ _____    ______ ____
ROOT
ATOM      1  O   HOH     1     -32.244 -10.161  26.246  0.00  0.00    +0.000 OA
ENDROOT
TORSDOF 0
REMARK  Name = ../refined-set-2016/3b2q/3b2q_pocket.pdb
REMARK  254 active torsions:
REMARK  status: ('A' for Active; 'I' for Inactive)
REMARK    1  A    between atoms: _2  and  _3
REMARK    2  A    between atoms: _8  and  _10
REMARK    3  A    between atoms: _10  and  _11
REMARK    4  A    between atoms: _10  and  _13
REMARK    5  A    between atoms: _13  and  _14
REMARK    6  A    between atoms: _17  and  _19
REMARK    7  A    between atoms: _19  and  _20
REMARK    8  A    between atoms: _19  and  _22
REMARK    9  A    between atoms: _22  and  _23
REMARK   10  A    between atoms: _29  and  _31
REMARK   11  A    between atoms: _31  and  _32
REMARK   12  A    between atoms: _31  and  _34
REMARK   13  A    between atoms: _34  and  _35
REMARK   14  A    between atoms: _37  and  _39
REMARK   15  A    between atoms: _39  and  _40
REMARK   16  A    between atoms: _43  and  _45
REMARK   17  A    between atoms: _45  and  _46
REMARK   18  A    between atoms: _45  and  _48
REMARK   19  A    between atoms: _48  and  _49
REMARK   20  A    between atoms: _51  and  _53
REMARK   21  A    between atoms: _53  and  _54
REMARK   22  A    between atoms: _56  and  _58
REMARK   23  A    between atoms: _58  and  _59
REMARK   24  A    between atoms: _58  and  _61
REMARK   25  A    between atoms: _61  and  _62
REMARK   26  A    between atoms: _65  and  _67
REMARK   27  A    between atoms: _67  and  _68
REMARK   28  A    between atoms: _67  and  _70
REMARK   29  A    between atoms: _70  and  _71
REMARK   30  A    between atoms: _74  and  _76
REMARK   31  A    between atoms: _76  and  _77
REMARK   32  A    between atoms: _76  and  _79
REMARK   33  A    between atoms: _79  and  _80
REMARK   34  A    between atoms: _82  and  _84
REMARK   35  A    between atoms: _84  and  _85
REMARK   36  A    between atoms: _84  and  _87
REMARK   37  A    between atoms: _87  and  _88
REMARK   38  A    between atoms: _88  and  _89
REMARK   39  A    between atoms: _92  and  _93
REMARK   40  A    between atoms: _99  and  _100
REMARK   41  A    between atoms: _105  and  _107
REMARK   42  A    between atoms: _107  and  _108
REMARK   43  A    between atoms: _107  and  _110
REMARK   44  A    between atoms: _110  and  _111
REMARK   45  A    between atoms: _114  and  _116
REMARK   46  A    between atoms: _116  and  _117
REMARK   47  A    between atoms: _116  and  _119
REMARK   48  A    between atoms: _119  and  _120
REMARK   49  A    between atoms: _123  and  _125
REMARK   50  A    between atoms: _125  and  _126
REMARK   51  A    between atoms: _125  and  _128
REMARK   52  A    between atoms: _128  and  _129
REMARK   53  A    between atoms: _131  and  _133
REMARK   54  A    between atoms: _133  and  _134
REMARK   55  A    between atoms: _136  and  _138
REMARK   56  A    between atoms: _138  and  _139
REMARK   57  A    between atoms: _138  and  _141
REMARK   58  A    between atoms: _141  and  _142
REMARK   59  A    between atoms: _147  and  _148
REMARK   60  A    between atoms: _150  and  _152
REMARK   61  A    between atoms: _152  and  _153
REMARK   62  A    between atoms: _152  and  _155
REMARK   63  A    between atoms: _155  and  _156
REMARK   64  A    between atoms: _159  and  _161
REMARK   65  A    between atoms: _161  and  _162
REMARK   66  A    between atoms: _161  and  _164
REMARK   67  A    between atoms: _164  and  _165
REMARK   68  A    between atoms: _168  and  _170
REMARK   69  A    between atoms: _170  and  _171
REMARK   70  A    between atoms: _173  and  _175
REMARK   71  A    between atoms: _175  and  _176
REMARK   72  A    between atoms: _175  and  _178
REMARK   73  A    between atoms: _178  and  _179
REMARK   74  A    between atoms: _179  and  _180
REMARK   75  A    between atoms: _185  and  _187
REMARK   76  A    between atoms: _187  and  _188
REMARK   77  A    between atoms: _187  and  _190
REMARK   78  A    between atoms: _190  and  _191
REMARK   79  A    between atoms: _194  and  _196
REMARK   80  A    between atoms: _196  and  _197
REMARK   81  A    between atoms: _196  and  _199
REMARK   82  A    between atoms: _202  and  _204
REMARK   83  A    between atoms: _204  and  _205
REMARK   84  A    between atoms: _204  and  _207
REMARK   85  A    between atoms: _210  and  _212
REMARK   86  A    between atoms: _212  and  _213
REMARK   87  A    between atoms: _216  and  _218
REMARK   88  A    between atoms: _218  and  _219
REMARK   89  A    between atoms: _218  and  _221
REMARK   90  A    between atoms: _221  and  _222
REMARK   91  A    between atoms: _222  and  _223
REMARK   92  A    between atoms: _223  and  _224
REMARK   93  A    between atoms: _233  and  _235
REMARK   94  A    between atoms: _235  and  _236
REMARK   95  A    between atoms: _235  and  _238
REMARK   96  A    between atoms: _238  and  _239
REMARK   97  A    between atoms: _239  and  _240
REMARK   98  A    between atoms: _243  and  _245
REMARK   99  A    between atoms: _245  and  _246
REMARK  100  A    between atoms: _245  and  _248
REMARK  101  A    between atoms: _248  and  _249
REMARK  102  A    between atoms: _252  and  _254
REMARK  103  A    between atoms: _254  and  _255
REMARK  104  A    between atoms: _254  and  _257
REMARK  105  A    between atoms: _257  and  _258
REMARK  106  A    between atoms: _263  and  _265
REMARK  107  A    between atoms: _265  and  _266
REMARK  108  A    between atoms: _265  and  _268
REMARK  109  A    between atoms: _268  and  _269
REMARK  110  A    between atoms: _269  and  _270
REMARK  111  A    between atoms: _270  and  _271
REMARK  112  A    between atoms: _281  and  _282
REMARK  113  A    between atoms: _287  and  _289
REMARK  114  A    between atoms: _289  and  _290
REMARK  115  A    between atoms: _289  and  _292
REMARK  116  A    between atoms: _292  and  _293
REMARK  117  A    between atoms: _298  and  _300
REMARK  118  A    between atoms: _300  and  _301
REMARK  119  A    between atoms: _300  and  _303
REMARK  120  A    between atoms: _303  and  _304
REMARK  121  A    between atoms: _308  and  _309
REMARK  122  A    between atoms: _314  and  _316
REMARK  123  A    between atoms: _316  and  _317
REMARK  124  A    between atoms: _316  and  _319
REMARK  125  A    between atoms: _319  and  _320
REMARK  126  A    between atoms: _322  and  _324
REMARK  127  A    between atoms: _324  and  _325
REMARK  128  A    between atoms: _324  and  _327
REMARK  129  A    between atoms: _327  and  _328
REMARK  130  A    between atoms: _331  and  _333
REMARK  131  A    between atoms: _333  and  _334
REMARK  132  A    between atoms: _333  and  _336
REMARK  133  A    between atoms: _336  and  _337
REMARK  134  A    between atoms: _337  and  _338
REMARK  135  A    between atoms: _338  and  _339
REMARK  136  A    between atoms: _348  and  _350
REMARK  137  A    between atoms: _350  and  _351
REMARK  138  A    between atoms: _350  and  _353
REMARK  139  A    between atoms: _353  and  _354
REMARK  140  A    between atoms: _360  and  _362
REMARK  141  A    between atoms: _362  and  _363
REMARK  142  A    between atoms: _362  and  _365
REMARK  143  A    between atoms: _365  and  _366
REMARK  144  A    between atoms: _368  and  _370
REMARK  145  A    between atoms: _370  and  _371
REMARK  146  A    between atoms: _374  and  _376
REMARK  147  A    between atoms: _376  and  _377
REMARK  148  A    between atoms: _376  and  _379
REMARK  149  A    between atoms: _379  and  _380
REMARK  150  A    between atoms: _385  and  _386
REMARK  151  A    between atoms: _388  and  _390
REMARK  152  A    between atoms: _390  and  _391
REMARK  153  A    between atoms: _390  and  _393
REMARK  154  A    between atoms: _393  and  _394
REMARK  155  A    between atoms: _394  and  _395
REMARK  156  A    between atoms: _397  and  _399
REMARK  157  A    between atoms: _399  and  _400
REMARK  158  A    between atoms: _399  and  _402
REMARK  159  A    between atoms: _402  and  _403
REMARK  160  A    between atoms: _408  and  _409
REMARK  161  A    between atoms: _411  and  _413
REMARK  162  A    between atoms: _413  and  _414
REMARK  163  A    between atoms: _413  and  _416
REMARK  164  A    between atoms: _416  and  _417
REMARK  165  A    between atoms: _420  and  _422
REMARK  166  A    between atoms: _422  and  _423
REMARK  167  A    between atoms: _422  and  _425
REMARK  168  A    between atoms: _425  and  _426
REMARK  169  A    between atoms: _426  and  _427
REMARK  170  A    between atoms: _429  and  _431
REMARK  171  A    between atoms: _431  and  _432
REMARK  172  A    between atoms: _431  and  _434
REMARK  173  A    between atoms: _434  and  _435
REMARK  174  A    between atoms: _439  and  _440
REMARK  175  A    between atoms: _445  and  _447
REMARK  176  A    between atoms: _447  and  _448
REMARK  177  A    between atoms: _447  and  _450
REMARK  178  A    between atoms: _450  and  _451
REMARK  179  A    between atoms: _455  and  _456
REMARK  180  A    between atoms: _461  and  _463
REMARK  181  A    between atoms: _463  and  _464
REMARK  182  A    between atoms: _463  and  _466
REMARK  183  A    between atoms: _466  and  _467
REMARK  184  A    between atoms: _470  and  _472
REMARK  185  A    between atoms: _472  and  _473
REMARK  186  A    between atoms: _472  and  _475
REMARK  187  A    between atoms: _475  and  _476
REMARK  188  A    between atoms: _479  and  _481
REMARK  189  A    between atoms: _481  and  _482
REMARK  190  A    between atoms: _481  and  _484
REMARK  191  A    between atoms: _484  and  _485
REMARK  192  A    between atoms: _487  and  _489
REMARK  193  A    between atoms: _489  and  _490
REMARK  194  A    between atoms: _492  and  _494
REMARK  195  A    between atoms: _494  and  _495
REMARK  196  A    between atoms: _494  and  _497
REMARK  197  A    between atoms: _497  and  _498
REMARK  198  A    between atoms: _503  and  _504
REMARK  199  A    between atoms: _506  and  _508
REMARK  200  A    between atoms: _508  and  _509
REMARK  201  A    between atoms: _508  and  _511
REMARK  202  A    between atoms: _511  and  _512
REMARK  203  A    between atoms: _515  and  _517
REMARK  204  A    between atoms: _517  and  _518
REMARK  205  A    between atoms: _517  and  _520
REMARK  206  A    between atoms: _520  and  _521
REMARK  207  A    between atoms: _524  and  _526
REMARK  208  A    between atoms: _526  and  _527
REMARK  209  A    between atoms: _529  and  _531
REMARK  210  A    between atoms: _531  and  _532
REMARK  211  A    between atoms: _531  and  _534
REMARK  212  A    between atoms: _534  and  _535
REMARK  213  A    between atoms: _535  and  _536
REMARK  214  A    between atoms: _541  and  _543
REMARK  215  A    between atoms: _543  and  _544
REMARK  216  A    between atoms: _543  and  _546
REMARK  217  A    between atoms: _546  and  _547
REMARK  218  A    between atoms: _550  and  _552
REMARK  219  A    between atoms: _552  and  _553
REMARK  220  A    between atoms: _552  and  _555
REMARK  221  A    between atoms: _558  and  _560
REMARK  222  A    between atoms: _560  and  _561
REMARK  223  A    between atoms: _560  and  _563
REMARK  224  A    between atoms: _566  and  _568
REMARK  225  A    between atoms: _568  and  _569
REMARK  226  A    between atoms: _572  and  _574
REMARK  227  A    between atoms: _574  and  _575
REMARK  228  A    between atoms: _574  and  _577
REMARK  229  A    between atoms: _577  and  _578
REMARK  230  A    between atoms: _578  and  _579
REMARK  231  A    between atoms: _579  and  _580
REMARK  232  A    between atoms: _589  and  _591
REMARK  233  A    between atoms: _591  and  _592
REMARK  234  A    between atoms: _591  and  _594
REMARK  235  A    between atoms: _594  and  _595
REMARK  236  A    between atoms: _600  and  _602
REMARK  237  A    between atoms: _602  and  _603
REMARK  238  A    between atoms: _602  and  _605
REMARK  239  A    between atoms: _605  and  _606
REMARK  240  A    between atoms: _610  and  _611
REMARK  241  A    between atoms: _616  and  _618
REMARK  242  A    between atoms: _618  and  _619
REMARK  243  A    between atoms: _618  and  _621
REMARK  244  A    between atoms: _621  and  _622
REMARK  245  A    between atoms: _624  and  _626
REMARK  246  A    between atoms: _626  and  _627
REMARK  247  A    between atoms: _626  and  _629
REMARK  248  A    between atoms: _629  and  _630
REMARK  249  A    between atoms: _633  and  _635
REMARK  250  A    between atoms: _635  and  _636
REMARK  251  A    between atoms: _635  and  _638
REMARK  252  A    between atoms: _638  and  _639
REMARK  253  A    between atoms: _639  and  _640
REMARK  254  A    between atoms: _640  and  _641
REMARK                            x       y       z     vdW  Elec       q    Type
REMARK                         _______ _______ _______ _____ _____    ______ ____
ROOT
ATOM      1  O   HOH     1     -32.963 -10.587  29.366  0.00  0.00    +0.000 OA
ENDROOT
TORSDOF 0
REMARK  Name = ../refined-set-2016/3b2q/3b2q_pocket.pdb
REMARK  254 active torsions:
REMARK  status: ('A' for Active; 'I' for Inactive)
REMARK    1  A    between atoms: _2  and  _3
REMARK    2  A    between atoms: _8  and  _10
REMARK    3  A    between atoms: _10  and  _11
REMARK    4  A    between atoms: _10  and  _13
REMARK    5  A    between atoms: _13  and  _14
REMARK    6  A    between atoms: _17  and  _19
REMARK    7  A    between atoms: _19  and  _20
REMARK    8  A    between atoms: _19  and  _22
REMARK    9  A    between atoms: _22  and  _23
REMARK   10  A    between atoms: _29  and  _31
REMARK   11  A    between atoms: _31  and  _32
REMARK   12  A    between atoms: _31  and  _34
REMARK   13  A    between atoms: _34  and  _35
REMARK   14  A    between atoms: _37  and  _39
REMARK   15  A    between atoms: _39  and  _40
REMARK   16  A    between atoms: _43  and  _45
REMARK   17  A    between atoms: _45  and  _46
REMARK   18  A    between atoms: _45  and  _48
REMARK   19  A    between atoms: _48  and  _49
REMARK   20  A    between atoms: _51  and  _53
REMARK   21  A    between atoms: _53  and  _54
REMARK   22  A    between atoms: _56  and  _58
REMARK   23  A    between atoms: _58  and  _59
REMARK   24  A    between atoms: _58  and  _61
REMARK   25  A    between atoms: _61  and  _62
REMARK   26  A    between atoms: _65  and  _67
REMARK   27  A    between atoms: _67  and  _68
REMARK   28  A    between atoms: _67  and  _70
REMARK   29  A    between atoms: _70  and  _71
REMARK   30  A    between atoms: _74  and  _76
REMARK   31  A    between atoms: _76  and  _77
REMARK   32  A    between atoms: _76  and  _79
REMARK   33  A    between atoms: _79  and  _80
REMARK   34  A    between atoms: _82  and  _84
REMARK   35  A    between atoms: _84  and  _85
REMARK   36  A    between atoms: _84  and  _87
REMARK   37  A    between atoms: _87  and  _88
REMARK   38  A    between atoms: _88  and  _89
REMARK   39  A    between atoms: _92  and  _93
REMARK   40  A    between atoms: _99  and  _100
REMARK   41  A    between atoms: _105  and  _107
REMARK   42  A    between atoms: _107  and  _108
REMARK   43  A    between atoms: _107  and  _110
REMARK   44  A    between atoms: _110  and  _111
REMARK   45  A    between atoms: _114  and  _116
REMARK   46  A    between atoms: _116  and  _117
REMARK   47  A    between atoms: _116  and  _119
REMARK   48  A    between atoms: _119  and  _120
REMARK   49  A    between atoms: _123  and  _125
REMARK   50  A    between atoms: _125  and  _126
REMARK   51  A    between atoms: _125  and  _128
REMARK   52  A    between atoms: _128  and  _129
REMARK   53  A    between atoms: _131  and  _133
REMARK   54  A    between atoms: _133  and  _134
REMARK   55  A    between atoms: _136  and  _138
REMARK   56  A    between atoms: _138  and  _139
REMARK   57  A    between atoms: _138  and  _141
REMARK   58  A    between atoms: _141  and  _142
REMARK   59  A    between atoms: _147  and  _148
REMARK   60  A    between atoms: _150  and  _152
REMARK   61  A    between atoms: _152  and  _153
REMARK   62  A    between atoms: _152  and  _155
REMARK   63  A    between atoms: _155  and  _156
REMARK   64  A    between atoms: _159  and  _161
REMARK   65  A    between atoms: _161  and  _162
REMARK   66  A    between atoms: _161  and  _164
REMARK   67  A    between atoms: _164  and  _165
REMARK   68  A    between atoms: _168  and  _170
REMARK   69  A    between atoms: _170  and  _171
REMARK   70  A    between atoms: _173  and  _175
REMARK   71  A    between atoms: _175  and  _176
REMARK   72  A    between atoms: _175  and  _178
REMARK   73  A    between atoms: _178  and  _179
REMARK   74  A    between atoms: _179  and  _180
REMARK   75  A    between atoms: _185  and  _187
REMARK   76  A    between atoms: _187  and  _188
REMARK   77  A    between atoms: _187  and  _190
REMARK   78  A    between atoms: _190  and  _191
REMARK   79  A    between atoms: _194  and  _196
REMARK   80  A    between atoms: _196  and  _197
REMARK   81  A    between atoms: _196  and  _199
REMARK   82  A    between atoms: _202  and  _204
REMARK   83  A    between atoms: _204  and  _205
REMARK   84  A    between atoms: _204  and  _207
REMARK   85  A    between atoms: _210  and  _212
REMARK   86  A    between atoms: _212  and  _213
REMARK   87  A    between atoms: _216  and  _218
REMARK   88  A    between atoms: _218  and  _219
REMARK   89  A    between atoms: _218  and  _221
REMARK   90  A    between atoms: _221  and  _222
REMARK   91  A    between atoms: _222  and  _223
REMARK   92  A    between atoms: _223  and  _224
REMARK   93  A    between atoms: _233  and  _235
REMARK   94  A    between atoms: _235  and  _236
REMARK   95  A    between atoms: _235  and  _238
REMARK   96  A    between atoms: _238  and  _239
REMARK   97  A    between atoms: _239  and  _240
REMARK   98  A    between atoms: _243  and  _245
REMARK   99  A    between atoms: _245  and  _246
REMARK  100  A    between atoms: _245  and  _248
REMARK  101  A    between atoms: _248  and  _249
REMARK  102  A    between atoms: _252  and  _254
REMARK  103  A    between atoms: _254  and  _255
REMARK  104  A    between atoms: _254  and  _257
REMARK  105  A    between atoms: _257  and  _258
REMARK  106  A    between atoms: _263  and  _265
REMARK  107  A    between atoms: _265  and  _266
REMARK  108  A    between atoms: _265  and  _268
REMARK  109  A    between atoms: _268  and  _269
REMARK  110  A    between atoms: _269  and  _270
REMARK  111  A    between atoms: _270  and  _271
REMARK  112  A    between atoms: _281  and  _282
REMARK  113  A    between atoms: _287  and  _289
REMARK  114  A    between atoms: _289  and  _290
REMARK  115  A    between atoms: _289  and  _292
REMARK  116  A    between atoms: _292  and  _293
REMARK  117  A    between atoms: _298  and  _300
REMARK  118  A    between atoms: _300  and  _301
REMARK  119  A    between atoms: _300  and  _303
REMARK  120  A    between atoms: _303  and  _304
REMARK  121  A    between atoms: _308  and  _309
REMARK  122  A    between atoms: _314  and  _316
REMARK  123  A    between atoms: _316  and  _317
REMARK  124  A    between atoms: _316  and  _319
REMARK  125  A    between atoms: _319  and  _320
REMARK  126  A    between atoms: _322  and  _324
REMARK  127  A    between atoms: _324  and  _325
REMARK  128  A    between atoms: _324  and  _327
REMARK  129  A    between atoms: _327  and  _328
REMARK  130  A    between atoms: _331  and  _333
REMARK  131  A    between atoms: _333  and  _334
REMARK  132  A    between atoms: _333  and  _336
REMARK  133  A    between atoms: _336  and  _337
REMARK  134  A    between atoms: _337  and  _338
REMARK  135  A    between atoms: _338  and  _339
REMARK  136  A    between atoms: _348  and  _350
REMARK  137  A    between atoms: _350  and  _351
REMARK  138  A    between atoms: _350  and  _353
REMARK  139  A    between atoms: _353  and  _354
REMARK  140  A    between atoms: _360  and  _362
REMARK  141  A    between atoms: _362  and  _363
REMARK  142  A    between atoms: _362  and  _365
REMARK  143  A    between atoms: _365  and  _366
REMARK  144  A    between atoms: _368  and  _370
REMARK  145  A    between atoms: _370  and  _371
REMARK  146  A    between atoms: _374  and  _376
REMARK  147  A    between atoms: _376  and  _377
REMARK  148  A    between atoms: _376  and  _379
REMARK  149  A    between atoms: _379  and  _380
REMARK  150  A    between atoms: _385  and  _386
REMARK  151  A    between atoms: _388  and  _390
REMARK  152  A    between atoms: _390  and  _391
REMARK  153  A    between atoms: _390  and  _393
REMARK  154  A    between atoms: _393  and  _394
REMARK  155  A    between atoms: _394  and  _395
REMARK  156  A    between atoms: _397  and  _399
REMARK  157  A    between atoms: _399  and  _400
REMARK  158  A    between atoms: _399  and  _402
REMARK  159  A    between atoms: _402  and  _403
REMARK  160  A    between atoms: _408  and  _409
REMARK  161  A    between atoms: _411  and  _413
REMARK  162  A    between atoms: _413  and  _414
REMARK  163  A    between atoms: _413  and  _416
REMARK  164  A    between atoms: _416  and  _417
REMARK  165  A    between atoms: _420  and  _422
REMARK  166  A    between atoms: _422  and  _423
REMARK  167  A    between atoms: _422  and  _425
REMARK  168  A    between atoms: _425  and  _426
REMARK  169  A    between atoms: _426  and  _427
REMARK  170  A    between atoms: _429  and  _431
REMARK  171  A    between atoms: _431  and  _432
REMARK  172  A    between atoms: _431  and  _434
REMARK  173  A    between atoms: _434  and  _435
REMARK  174  A    between atoms: _439  and  _440
REMARK  175  A    between atoms: _445  and  _447
REMARK  176  A    between atoms: _447  and  _448
REMARK  177  A    between atoms: _447  and  _450
REMARK  178  A    between atoms: _450  and  _451
REMARK  179  A    between atoms: _455  and  _456
REMARK  180  A    between atoms: _461  and  _463
REMARK  181  A    between atoms: _463  and  _464
REMARK  182  A    between atoms: _463  and  _466
REMARK  183  A    between atoms: _466  and  _467
REMARK  184  A    between atoms: _470  and  _472
REMARK  185  A    between atoms: _472  and  _473
REMARK  186  A    between atoms: _472  and  _475
REMARK  187  A    between atoms: _475  and  _476
REMARK  188  A    between atoms: _479  and  _481
REMARK  189  A    between atoms: _481  and  _482
REMARK  190  A    between atoms: _481  and  _484
REMARK  191  A    between atoms: _484  and  _485
REMARK  192  A    between atoms: _487  and  _489
REMARK  193  A    between atoms: _489  and  _490
REMARK  194  A    between atoms: _492  and  _494
REMARK  195  A    between atoms: _494  and  _495
REMARK  196  A    between atoms: _494  and  _497
REMARK  197  A    between atoms: _497  and  _498
REMARK  198  A    between atoms: _503  and  _504
REMARK  199  A    between atoms: _506  and  _508
REMARK  200  A    between atoms: _508  and  _509
REMARK  201  A    between atoms: _508  and  _511
REMARK  202  A    between atoms: _511  and  _512
REMARK  203  A    between atoms: _515  and  _517
REMARK  204  A    between atoms: _517  and  _518
REMARK  205  A    between atoms: _517  and  _520
REMARK  206  A    between atoms: _520  and  _521
REMARK  207  A    between atoms: _524  and  _526
REMARK  208  A    between atoms: _526  and  _527
REMARK  209  A    between atoms: _529  and  _531
REMARK  210  A    between atoms: _531  and  _532
REMARK  211  A    between atoms: _531  and  _534
REMARK  212  A    between atoms: _534  and  _535
REMARK  213  A    between atoms: _535  and  _536
REMARK  214  A    between atoms: _541  and  _543
REMARK  215  A    between atoms: _543  and  _544
REMARK  216  A    between atoms: _543  and  _546
REMARK  217  A    between atoms: _546  and  _547
REMARK  218  A    between atoms: _550  and  _552
REMARK  219  A    between atoms: _552  and  _553
REMARK  220  A    between atoms: _552  and  _555
REMARK  221  A    between atoms: _558  and  _560
REMARK  222  A    between atoms: _560  and  _561
REMARK  223  A    between atoms: _560  and  _563
REMARK  224  A    between atoms: _566  and  _568
REMARK  225  A    between atoms: _568  and  _569
REMARK  226  A    between atoms: _572  and  _574
REMARK  227  A    between atoms: _574  and  _575
REMARK  228  A    between atoms: _574  and  _577
REMARK  229  A    between atoms: _577  and  _578
REMARK  230  A    between atoms: _578  and  _579
REMARK  231  A    between atoms: _579  and  _580
REMARK  232  A    between atoms: _589  and  _591
REMARK  233  A    between atoms: _591  and  _592
REMARK  234  A    between atoms: _591  and  _594
REMARK  235  A    between atoms: _594  and  _595
REMARK  236  A    between atoms: _600  and  _602
REMARK  237  A    between atoms: _602  and  _603
REMARK  238  A    between atoms: _602  and  _605
REMARK  239  A    between atoms: _605  and  _606
REMARK  240  A    between atoms: _610  and  _611
REMARK  241  A    between atoms: _616  and  _618
REMARK  242  A    between atoms: _618  and  _619
REMARK  243  A    between atoms: _618  and  _621
REMARK  244  A    between atoms: _621  and  _622
REMARK  245  A    between atoms: _624  and  _626
REMARK  246  A    between atoms: _626  and  _627
REMARK  247  A    between atoms: _626  and  _629
REMARK  248  A    between atoms: _629  and  _630
REMARK  249  A    between atoms: _633  and  _635
REMARK  250  A    between atoms: _635  and  _636
REMARK  251  A    between atoms: _635  and  _638
REMARK  252  A    between atoms: _638  and  _639
REMARK  253  A    between atoms: _639  and  _640
REMARK  254  A    between atoms: _640  and  _641
REMARK                            x       y       z     vdW  Elec       q    Type
REMARK                         _______ _______ _______ _____ _____    ______ ____
ROOT
ATOM      1  O   HOH     1     -25.107 -13.531  11.195  0.00  0.00    +0.000 OA
ENDROOT
TORSDOF 0
REMARK  Name = ../refined-set-2016/3b2q/3b2q_pocket.pdb
REMARK  254 active torsions:
REMARK  status: ('A' for Active; 'I' for Inactive)
REMARK    1  A    between atoms: _2  and  _3
REMARK    2  A    between atoms: _8  and  _10
REMARK    3  A    between atoms: _10  and  _11
REMARK    4  A    between atoms: _10  and  _13
REMARK    5  A    between atoms: _13  and  _14
REMARK    6  A    between atoms: _17  and  _19
REMARK    7  A    between atoms: _19  and  _20
REMARK    8  A    between atoms: _19  and  _22
REMARK    9  A    between atoms: _22  and  _23
REMARK   10  A    between atoms: _29  and  _31
REMARK   11  A    between atoms: _31  and  _32
REMARK   12  A    between atoms: _31  and  _34
REMARK   13  A    between atoms: _34  and  _35
REMARK   14  A    between atoms: _37  and  _39
REMARK   15  A    between atoms: _39  and  _40
REMARK   16  A    between atoms: _43  and  _45
REMARK   17  A    between atoms: _45  and  _46
REMARK   18  A    between atoms: _45  and  _48
REMARK   19  A    between atoms: _48  and  _49
REMARK   20  A    between atoms: _51  and  _53
REMARK   21  A    between atoms: _53  and  _54
REMARK   22  A    between atoms: _56  and  _58
REMARK   23  A    between atoms: _58  and  _59
REMARK   24  A    between atoms: _58  and  _61
REMARK   25  A    between atoms: _61  and  _62
REMARK   26  A    between atoms: _65  and  _67
REMARK   27  A    between atoms: _67  and  _68
REMARK   28  A    between atoms: _67  and  _70
REMARK   29  A    between atoms: _70  and  _71
REMARK   30  A    between atoms: _74  and  _76
REMARK   31  A    between atoms: _76  and  _77
REMARK   32  A    between atoms: _76  and  _79
REMARK   33  A    between atoms: _79  and  _80
REMARK   34  A    between atoms: _82  and  _84
REMARK   35  A    between atoms: _84  and  _85
REMARK   36  A    between atoms: _84  and  _87
REMARK   37  A    between atoms: _87  and  _88
REMARK   38  A    between atoms: _88  and  _89
REMARK   39  A    between atoms: _92  and  _93
REMARK   40  A    between atoms: _99  and  _100
REMARK   41  A    between atoms: _105  and  _107
REMARK   42  A    between atoms: _107  and  _108
REMARK   43  A    between atoms: _107  and  _110
REMARK   44  A    between atoms: _110  and  _111
REMARK   45  A    between atoms: _114  and  _116
REMARK   46  A    between atoms: _116  and  _117
REMARK   47  A    between atoms: _116  and  _119
REMARK   48  A    between atoms: _119  and  _120
REMARK   49  A    between atoms: _123  and  _125
REMARK   50  A    between atoms: _125  and  _126
REMARK   51  A    between atoms: _125  and  _128
REMARK   52  A    between atoms: _128  and  _129
REMARK   53  A    between atoms: _131  and  _133
REMARK   54  A    between atoms: _133  and  _134
REMARK   55  A    between atoms: _136  and  _138
REMARK   56  A    between atoms: _138  and  _139
REMARK   57  A    between atoms: _138  and  _141
REMARK   58  A    between atoms: _141  and  _142
REMARK   59  A    between atoms: _147  and  _148
REMARK   60  A    between atoms: _150  and  _152
REMARK   61  A    between atoms: _152  and  _153
REMARK   62  A    between atoms: _152  and  _155
REMARK   63  A    between atoms: _155  and  _156
REMARK   64  A    between atoms: _159  and  _161
REMARK   65  A    between atoms: _161  and  _162
REMARK   66  A    between atoms: _161  and  _164
REMARK   67  A    between atoms: _164  and  _165
REMARK   68  A    between atoms: _168  and  _170
REMARK   69  A    between atoms: _170  and  _171
REMARK   70  A    between atoms: _173  and  _175
REMARK   71  A    between atoms: _175  and  _176
REMARK   72  A    between atoms: _175  and  _178
REMARK   73  A    between atoms: _178  and  _179
REMARK   74  A    between atoms: _179  and  _180
REMARK   75  A    between atoms: _185  and  _187
REMARK   76  A    between atoms: _187  and  _188
REMARK   77  A    between atoms: _187  and  _190
REMARK   78  A    between atoms: _190  and  _191
REMARK   79  A    between atoms: _194  and  _196
REMARK   80  A    between atoms: _196  and  _197
REMARK   81  A    between atoms: _196  and  _199
REMARK   82  A    between atoms: _202  and  _204
REMARK   83  A    between atoms: _204  and  _205
REMARK   84  A    between atoms: _204  and  _207
REMARK   85  A    between atoms: _210  and  _212
REMARK   86  A    between atoms: _212  and  _213
REMARK   87  A    between atoms: _216  and  _218
REMARK   88  A    between atoms: _218  and  _219
REMARK   89  A    between atoms: _218  and  _221
REMARK   90  A    between atoms: _221  and  _222
REMARK   91  A    between atoms: _222  and  _223
REMARK   92  A    between atoms: _223  and  _224
REMARK   93  A    between atoms: _233  and  _235
REMARK   94  A    between atoms: _235  and  _236
REMARK   95  A    between atoms: _235  and  _238
REMARK   96  A    between atoms: _238  and  _239
REMARK   97  A    between atoms: _239  and  _240
REMARK   98  A    between atoms: _243  and  _245
REMARK   99  A    between atoms: _245  and  _246
REMARK  100  A    between atoms: _245  and  _248
REMARK  101  A    between atoms: _248  and  _249
REMARK  102  A    between atoms: _252  and  _254
REMARK  103  A    between atoms: _254  and  _255
REMARK  104  A    between atoms: _254  and  _257
REMARK  105  A    between atoms: _257  and  _258
REMARK  106  A    between atoms: _263  and  _265
REMARK  107  A    between atoms: _265  and  _266
REMARK  108  A    between atoms: _265  and  _268
REMARK  109  A    between atoms: _268  and  _269
REMARK  110  A    between atoms: _269  and  _270
REMARK  111  A    between atoms: _270  and  _271
REMARK  112  A    between atoms: _281  and  _282
REMARK  113  A    between atoms: _287  and  _289
REMARK  114  A    between atoms: _289  and  _290
REMARK  115  A    between atoms: _289  and  _292
REMARK  116  A    between atoms: _292  and  _293
REMARK  117  A    between atoms: _298  and  _300
REMARK  118  A    between atoms: _300  and  _301
REMARK  119  A    between atoms: _300  and  _303
REMARK  120  A    between atoms: _303  and  _304
REMARK  121  A    between atoms: _308  and  _309
REMARK  122  A    between atoms: _314  and  _316
REMARK  123  A    between atoms: _316  and  _317
REMARK  124  A    between atoms: _316  and  _319
REMARK  125  A    between atoms: _319  and  _320
REMARK  126  A    between atoms: _322  and  _324
REMARK  127  A    between atoms: _324  and  _325
REMARK  128  A    between atoms: _324  and  _327
REMARK  129  A    between atoms: _327  and  _328
REMARK  130  A    between atoms: _331  and  _333
REMARK  131  A    between atoms: _333  and  _334
REMARK  132  A    between atoms: _333  and  _336
REMARK  133  A    between atoms: _336  and  _337
REMARK  134  A    between atoms: _337  and  _338
REMARK  135  A    between atoms: _338  and  _339
REMARK  136  A    between atoms: _348  and  _350
REMARK  137  A    between atoms: _350  and  _351
REMARK  138  A    between atoms: _350  and  _353
REMARK  139  A    between atoms: _353  and  _354
REMARK  140  A    between atoms: _360  and  _362
REMARK  141  A    between atoms: _362  and  _363
REMARK  142  A    between atoms: _362  and  _365
REMARK  143  A    between atoms: _365  and  _366
REMARK  144  A    between atoms: _368  and  _370
REMARK  145  A    between atoms: _370  and  _371
REMARK  146  A    between atoms: _374  and  _376
REMARK  147  A    between atoms: _376  and  _377
REMARK  148  A    between atoms: _376  and  _379
REMARK  149  A    between atoms: _379  and  _380
REMARK  150  A    between atoms: _385  and  _386
REMARK  151  A    between atoms: _388  and  _390
REMARK  152  A    between atoms: _390  and  _391
REMARK  153  A    between atoms: _390  and  _393
REMARK  154  A    between atoms: _393  and  _394
REMARK  155  A    between atoms: _394  and  _395
REMARK  156  A    between atoms: _397  and  _399
REMARK  157  A    between atoms: _399  and  _400
REMARK  158  A    between atoms: _399  and  _402
REMARK  159  A    between atoms: _402  and  _403
REMARK  160  A    between atoms: _408  and  _409
REMARK  161  A    between atoms: _411  and  _413
REMARK  162  A    between atoms: _413  and  _414
REMARK  163  A    between atoms: _413  and  _416
REMARK  164  A    between atoms: _416  and  _417
REMARK  165  A    between atoms: _420  and  _422
REMARK  166  A    between atoms: _422  and  _423
REMARK  167  A    between atoms: _422  and  _425
REMARK  168  A    between atoms: _425  and  _426
REMARK  169  A    between atoms: _426  and  _427
REMARK  170  A    between atoms: _429  and  _431
REMARK  171  A    between atoms: _431  and  _432
REMARK  172  A    between atoms: _431  and  _434
REMARK  173  A    between atoms: _434  and  _435
REMARK  174  A    between atoms: _439  and  _440
REMARK  175  A    between atoms: _445  and  _447
REMARK  176  A    between atoms: _447  and  _448
REMARK  177  A    between atoms: _447  and  _450
REMARK  178  A    between atoms: _450  and  _451
REMARK  179  A    between atoms: _455  and  _456
REMARK  180  A    between atoms: _461  and  _463
REMARK  181  A    between atoms: _463  and  _464
REMARK  182  A    between atoms: _463  and  _466
REMARK  183  A    between atoms: _466  and  _467
REMARK  184  A    between atoms: _470  and  _472
REMARK  185  A    between atoms: _472  and  _473
REMARK  186  A    between atoms: _472  and  _475
REMARK  187  A    between atoms: _475  and  _476
REMARK  188  A    between atoms: _479  and  _481
REMARK  189  A    between atoms: _481  and  _482
REMARK  190  A    between atoms: _481  and  _484
REMARK  191  A    between atoms: _484  and  _485
REMARK  192  A    between atoms: _487  and  _489
REMARK  193  A    between atoms: _489  and  _490
REMARK  194  A    between atoms: _492  and  _494
REMARK  195  A    between atoms: _494  and  _495
REMARK  196  A    between atoms: _494  and  _497
REMARK  197  A    between atoms: _497  and  _498
REMARK  198  A    between atoms: _503  and  _504
REMARK  199  A    between atoms: _506  and  _508
REMARK  200  A    between atoms: _508  and  _509
REMARK  201  A    between atoms: _508  and  _511
REMARK  202  A    between atoms: _511  and  _512
REMARK  203  A    between atoms: _515  and  _517
REMARK  204  A    between atoms: _517  and  _518
REMARK  205  A    between atoms: _517  and  _520
REMARK  206  A    between atoms: _520  and  _521
REMARK  207  A    between atoms: _524  and  _526
REMARK  208  A    between atoms: _526  and  _527
REMARK  209  A    between atoms: _529  and  _531
REMARK  210  A    between atoms: _531  and  _532
REMARK  211  A    between atoms: _531  and  _534
REMARK  212  A    between atoms: _534  and  _535
REMARK  213  A    between atoms: _535  and  _536
REMARK  214  A    between atoms: _541  and  _543
REMARK  215  A    between atoms: _543  and  _544
REMARK  216  A    between atoms: _543  and  _546
REMARK  217  A    between atoms: _546  and  _547
REMARK  218  A    between atoms: _550  and  _552
REMARK  219  A    between atoms: _552  and  _553
REMARK  220  A    between atoms: _552  and  _555
REMARK  221  A    between atoms: _558  and  _560
REMARK  222  A    between atoms: _560  and  _561
REMARK  223  A    between atoms: _560  and  _563
REMARK  224  A    between atoms: _566  and  _568
REMARK  225  A    between atoms: _568  and  _569
REMARK  226  A    between atoms: _572  and  _574
REMARK  227  A    between atoms: _574  and  _575
REMARK  228  A    between atoms: _574  and  _577
REMARK  229  A    between atoms: _577  and  _578
REMARK  230  A    between atoms: _578  and  _579
REMARK  231  A    between atoms: _579  and  _580
REMARK  232  A    between atoms: _589  and  _591
REMARK  233  A    between atoms: _591  and  _592
REMARK  234  A    between atoms: _591  and  _594
REMARK  235  A    between atoms: _594  and  _595
REMARK  236  A    between atoms: _600  and  _602
REMARK  237  A    between atoms: _602  and  _603
REMARK  238  A    between atoms: _602  and  _605
REMARK  239  A    between atoms: _605  and  _606
REMARK  240  A    between atoms: _610  and  _611
REMARK  241  A    between atoms: _616  and  _618
REMARK  242  A    between atoms: _618  and  _619
REMARK  243  A    between atoms: _618  and  _621
REMARK  244  A    between atoms: _621  and  _622
REMARK  245  A    between atoms: _624  and  _626
REMARK  246  A    between atoms: _626  and  _627
REMARK  247  A    between atoms: _626  and  _629
REMARK  248  A    between atoms: _629  and  _630
REMARK  249  A    between atoms: _633  and  _635
REMARK  250  A    between atoms: _635  and  _636
REMARK  251  A    between atoms: _635  and  _638
REMARK  252  A    between atoms: _638  and  _639
REMARK  253  A    between atoms: _639  and  _640
REMARK  254  A    between atoms: _640  and  _641
REMARK                            x       y       z     vdW  Elec       q    Type
REMARK                         _______ _______ _______ _____ _____    ______ ____
ROOT
ATOM      1  O   HOH     1     -30.068 -24.317  17.302  0.00  0.00    +0.000 OA
ENDROOT
TORSDOF 0
REMARK  Name = ../refined-set-2016/3b2q/3b2q_pocket.pdb
REMARK  254 active torsions:
REMARK  status: ('A' for Active; 'I' for Inactive)
REMARK    1  A    between atoms: _2  and  _3
REMARK    2  A    between atoms: _8  and  _10
REMARK    3  A    between atoms: _10  and  _11
REMARK    4  A    between atoms: _10  and  _13
REMARK    5  A    between atoms: _13  and  _14
REMARK    6  A    between atoms: _17  and  _19
REMARK    7  A    between atoms: _19  and  _20
REMARK    8  A    between atoms: _19  and  _22
REMARK    9  A    between atoms: _22  and  _23
REMARK   10  A    between atoms: _29  and  _31
REMARK   11  A    between atoms: _31  and  _32
REMARK   12  A    between atoms: _31  and  _34
REMARK   13  A    between atoms: _34  and  _35
REMARK   14  A    between atoms: _37  and  _39
REMARK   15  A    between atoms: _39  and  _40
REMARK   16  A    between atoms: _43  and  _45
REMARK   17  A    between atoms: _45  and  _46
REMARK   18  A    between atoms: _45  and  _48
REMARK   19  A    between atoms: _48  and  _49
REMARK   20  A    between atoms: _51  and  _53
REMARK   21  A    between atoms: _53  and  _54
REMARK   22  A    between atoms: _56  and  _58
REMARK   23  A    between atoms: _58  and  _59
REMARK   24  A    between atoms: _58  and  _61
REMARK   25  A    between atoms: _61  and  _62
REMARK   26  A    between atoms: _65  and  _67
REMARK   27  A    between atoms: _67  and  _68
REMARK   28  A    between atoms: _67  and  _70
REMARK   29  A    between atoms: _70  and  _71
REMARK   30  A    between atoms: _74  and  _76
REMARK   31  A    between atoms: _76  and  _77
REMARK   32  A    between atoms: _76  and  _79
REMARK   33  A    between atoms: _79  and  _80
REMARK   34  A    between atoms: _82  and  _84
REMARK   35  A    between atoms: _84  and  _85
REMARK   36  A    between atoms: _84  and  _87
REMARK   37  A    between atoms: _87  and  _88
REMARK   38  A    between atoms: _88  and  _89
REMARK   39  A    between atoms: _92  and  _93
REMARK   40  A    between atoms: _99  and  _100
REMARK   41  A    between atoms: _105  and  _107
REMARK   42  A    between atoms: _107  and  _108
REMARK   43  A    between atoms: _107  and  _110
REMARK   44  A    between atoms: _110  and  _111
REMARK   45  A    between atoms: _114  and  _116
REMARK   46  A    between atoms: _116  and  _117
REMARK   47  A    between atoms: _116  and  _119
REMARK   48  A    between atoms: _119  and  _120
REMARK   49  A    between atoms: _123  and  _125
REMARK   50  A    between atoms: _125  and  _126
REMARK   51  A    between atoms: _125  and  _128
REMARK   52  A    between atoms: _128  and  _129
REMARK   53  A    between atoms: _131  and  _133
REMARK   54  A    between atoms: _133  and  _134
REMARK   55  A    between atoms: _136  and  _138
REMARK   56  A    between atoms: _138  and  _139
REMARK   57  A    between atoms: _138  and  _141
REMARK   58  A    between atoms: _141  and  _142
REMARK   59  A    between atoms: _147  and  _148
REMARK   60  A    between atoms: _150  and  _152
REMARK   61  A    between atoms: _152  and  _153
REMARK   62  A    between atoms: _152  and  _155
REMARK   63  A    between atoms: _155  and  _156
REMARK   64  A    between atoms: _159  and  _161
REMARK   65  A    between atoms: _161  and  _162
REMARK   66  A    between atoms: _161  and  _164
REMARK   67  A    between atoms: _164  and  _165
REMARK   68  A    between atoms: _168  and  _170
REMARK   69  A    between atoms: _170  and  _171
REMARK   70  A    between atoms: _173  and  _175
REMARK   71  A    between atoms: _175  and  _176
REMARK   72  A    between atoms: _175  and  _178
REMARK   73  A    between atoms: _178  and  _179
REMARK   74  A    between atoms: _179  and  _180
REMARK   75  A    between atoms: _185  and  _187
REMARK   76  A    between atoms: _187  and  _188
REMARK   77  A    between atoms: _187  and  _190
REMARK   78  A    between atoms: _190  and  _191
REMARK   79  A    between atoms: _194  and  _196
REMARK   80  A    between atoms: _196  and  _197
REMARK   81  A    between atoms: _196  and  _199
REMARK   82  A    between atoms: _202  and  _204
REMARK   83  A    between atoms: _204  and  _205
REMARK   84  A    between atoms: _204  and  _207
REMARK   85  A    between atoms: _210  and  _212
REMARK   86  A    between atoms: _212  and  _213
REMARK   87  A    between atoms: _216  and  _218
REMARK   88  A    between atoms: _218  and  _219
REMARK   89  A    between atoms: _218  and  _221
REMARK   90  A    between atoms: _221  and  _222
REMARK   91  A    between atoms: _222  and  _223
REMARK   92  A    between atoms: _223  and  _224
REMARK   93  A    between atoms: _233  and  _235
REMARK   94  A    between atoms: _235  and  _236
REMARK   95  A    between atoms: _235  and  _238
REMARK   96  A    between atoms: _238  and  _239
REMARK   97  A    between atoms: _239  and  _240
REMARK   98  A    between atoms: _243  and  _245
REMARK   99  A    between atoms: _245  and  _246
REMARK  100  A    between atoms: _245  and  _248
REMARK  101  A    between atoms: _248  and  _249
REMARK  102  A    between atoms: _252  and  _254
REMARK  103  A    between atoms: _254  and  _255
REMARK  104  A    between atoms: _254  and  _257
REMARK  105  A    between atoms: _257  and  _258
REMARK  106  A    between atoms: _263  and  _265
REMARK  107  A    between atoms: _265  and  _266
REMARK  108  A    between atoms: _265  and  _268
REMARK  109  A    between atoms: _268  and  _269
REMARK  110  A    between atoms: _269  and  _270
REMARK  111  A    between atoms: _270  and  _271
REMARK  112  A    between atoms: _281  and  _282
REMARK  113  A    between atoms: _287  and  _289
REMARK  114  A    between atoms: _289  and  _290
REMARK  115  A    between atoms: _289  and  _292
REMARK  116  A    between atoms: _292  and  _293
REMARK  117  A    between atoms: _298  and  _300
REMARK  118  A    between atoms: _300  and  _301
REMARK  119  A    between atoms: _300  and  _303
REMARK  120  A    between atoms: _303  and  _304
REMARK  121  A    between atoms: _308  and  _309
REMARK  122  A    between atoms: _314  and  _316
REMARK  123  A    between atoms: _316  and  _317
REMARK  124  A    between atoms: _316  and  _319
REMARK  125  A    between atoms: _319  and  _320
REMARK  126  A    between atoms: _322  and  _324
REMARK  127  A    between atoms: _324  and  _325
REMARK  128  A    between atoms: _324  and  _327
REMARK  129  A    between atoms: _327  and  _328
REMARK  130  A    between atoms: _331  and  _333
REMARK  131  A    between atoms: _333  and  _334
REMARK  132  A    between atoms: _333  and  _336
REMARK  133  A    between atoms: _336  and  _337
REMARK  134  A    between atoms: _337  and  _338
REMARK  135  A    between atoms: _338  and  _339
REMARK  136  A    between atoms: _348  and  _350
REMARK  137  A    between atoms: _350  and  _351
REMARK  138  A    between atoms: _350  and  _353
REMARK  139  A    between atoms: _353  and  _354
REMARK  140  A    between atoms: _360  and  _362
REMARK  141  A    between atoms: _362  and  _363
REMARK  142  A    between atoms: _362  and  _365
REMARK  143  A    between atoms: _365  and  _366
REMARK  144  A    between atoms: _368  and  _370
REMARK  145  A    between atoms: _370  and  _371
REMARK  146  A    between atoms: _374  and  _376
REMARK  147  A    between atoms: _376  and  _377
REMARK  148  A    between atoms: _376  and  _379
REMARK  149  A    between atoms: _379  and  _380
REMARK  150  A    between atoms: _385  and  _386
REMARK  151  A    between atoms: _388  and  _390
REMARK  152  A    between atoms: _390  and  _391
REMARK  153  A    between atoms: _390  and  _393
REMARK  154  A    between atoms: _393  and  _394
REMARK  155  A    between atoms: _394  and  _395
REMARK  156  A    between atoms: _397  and  _399
REMARK  157  A    between atoms: _399  and  _400
REMARK  158  A    between atoms: _399  and  _402
REMARK  159  A    between atoms: _402  and  _403
REMARK  160  A    between atoms: _408  and  _409
REMARK  161  A    between atoms: _411  and  _413
REMARK  162  A    between atoms: _413  and  _414
REMARK  163  A    between atoms: _413  and  _416
REMARK  164  A    between atoms: _416  and  _417
REMARK  165  A    between atoms: _420  and  _422
REMARK  166  A    between atoms: _422  and  _423
REMARK  167  A    between atoms: _422  and  _425
REMARK  168  A    between atoms: _425  and  _426
REMARK  169  A    between atoms: _426  and  _427
REMARK  170  A    between atoms: _429  and  _431
REMARK  171  A    between atoms: _431  and  _432
REMARK  172  A    between atoms: _431  and  _434
REMARK  173  A    between atoms: _434  and  _435
REMARK  174  A    between atoms: _439  and  _440
REMARK  175  A    between atoms: _445  and  _447
REMARK  176  A    between atoms: _447  and  _448
REMARK  177  A    between atoms: _447  and  _450
REMARK  178  A    between atoms: _450  and  _451
REMARK  179  A    between atoms: _455  and  _456
REMARK  180  A    between atoms: _461  and  _463
REMARK  181  A    between atoms: _463  and  _464
REMARK  182  A    between atoms: _463  and  _466
REMARK  183  A    between atoms: _466  and  _467
REMARK  184  A    between atoms: _470  and  _472
REMARK  185  A    between atoms: _472  and  _473
REMARK  186  A    between atoms: _472  and  _475
REMARK  187  A    between atoms: _475  and  _476
REMARK  188  A    between atoms: _479  and  _481
REMARK  189  A    between atoms: _481  and  _482
REMARK  190  A    between atoms: _481  and  _484
REMARK  191  A    between atoms: _484  and  _485
REMARK  192  A    between atoms: _487  and  _489
REMARK  193  A    between atoms: _489  and  _490
REMARK  194  A    between atoms: _492  and  _494
REMARK  195  A    between atoms: _494  and  _495
REMARK  196  A    between atoms: _494  and  _497
REMARK  197  A    between atoms: _497  and  _498
REMARK  198  A    between atoms: _503  and  _504
REMARK  199  A    between atoms: _506  and  _508
REMARK  200  A    between atoms: _508  and  _509
REMARK  201  A    between atoms: _508  and  _511
REMARK  202  A    between atoms: _511  and  _512
REMARK  203  A    between atoms: _515  and  _517
REMARK  204  A    between atoms: _517  and  _518
REMARK  205  A    between atoms: _517  and  _520
REMARK  206  A    between atoms: _520  and  _521
REMARK  207  A    between atoms: _524  and  _526
REMARK  208  A    between atoms: _526  and  _527
REMARK  209  A    between atoms: _529  and  _531
REMARK  210  A    between atoms: _531  and  _532
REMARK  211  A    between atoms: _531  and  _534
REMARK  212  A    between atoms: _534  and  _535
REMARK  213  A    between atoms: _535  and  _536
REMARK  214  A    between atoms: _541  and  _543
REMARK  215  A    between atoms: _543  and  _544
REMARK  216  A    between atoms: _543  and  _546
REMARK  217  A    between atoms: _546  and  _547
REMARK  218  A    between atoms: _550  and  _552
REMARK  219  A    between atoms: _552  and  _553
REMARK  220  A    between atoms: _552  and  _555
REMARK  221  A    between atoms: _558  and  _560
REMARK  222  A    between atoms: _560  and  _561
REMARK  223  A    between atoms: _560  and  _563
REMARK  224  A    between atoms: _566  and  _568
REMARK  225  A    between atoms: _568  and  _569
REMARK  226  A    between atoms: _572  and  _574
REMARK  227  A    between atoms: _574  and  _575
REMARK  228  A    between atoms: _574  and  _577
REMARK  229  A    between atoms: _577  and  _578
REMARK  230  A    between atoms: _578  and  _579
REMARK  231  A    between atoms: _579  and  _580
REMARK  232  A    between atoms: _589  and  _591
REMARK  233  A    between atoms: _591  and  _592
REMARK  234  A    between atoms: _591  and  _594
REMARK  235  A    between atoms: _594  and  _595
REMARK  236  A    between atoms: _600  and  _602
REMARK  237  A    between atoms: _602  and  _603
REMARK  238  A    between atoms: _602  and  _605
REMARK  239  A    between atoms: _605  and  _606
REMARK  240  A    between atoms: _610  and  _611
REMARK  241  A    between atoms: _616  and  _618
REMARK  242  A    between atoms: _618  and  _619
REMARK  243  A    between atoms: _618  and  _621
REMARK  244  A    between atoms: _621  and  _622
REMARK  245  A    between atoms: _624  and  _626
REMARK  246  A    between atoms: _626  and  _627
REMARK  247  A    between atoms: _626  and  _629
REMARK  248  A    between atoms: _629  and  _630
REMARK  249  A    between atoms: _633  and  _635
REMARK  250  A    between atoms: _635  and  _636
REMARK  251  A    between atoms: _635  and  _638
REMARK  252  A    between atoms: _638  and  _639
REMARK  253  A    between atoms: _639  and  _640
REMARK  254  A    between atoms: _640  and  _641
REMARK                            x       y       z     vdW  Elec       q    Type
REMARK                         _______ _______ _______ _____ _____    ______ ____
ROOT
ATOM      1  O   HOH     1     -21.906  -5.146  20.185  0.00  0.00    +0.000 OA
ENDROOT
TORSDOF 0
REMARK  Name = ../refined-set-2016/3b2q/3b2q_pocket.pdb
REMARK  254 active torsions:
REMARK  status: ('A' for Active; 'I' for Inactive)
REMARK    1  A    between atoms: _2  and  _3
REMARK    2  A    between atoms: _8  and  _10
REMARK    3  A    between atoms: _10  and  _11
REMARK    4  A    between atoms: _10  and  _13
REMARK    5  A    between atoms: _13  and  _14
REMARK    6  A    between atoms: _17  and  _19
REMARK    7  A    between atoms: _19  and  _20
REMARK    8  A    between atoms: _19  and  _22
REMARK    9  A    between atoms: _22  and  _23
REMARK   10  A    between atoms: _29  and  _31
REMARK   11  A    between atoms: _31  and  _32
REMARK   12  A    between atoms: _31  and  _34
REMARK   13  A    between atoms: _34  and  _35
REMARK   14  A    between atoms: _37  and  _39
REMARK   15  A    between atoms: _39  and  _40
REMARK   16  A    between atoms: _43  and  _45
REMARK   17  A    between atoms: _45  and  _46
REMARK   18  A    between atoms: _45  and  _48
REMARK   19  A    between atoms: _48  and  _49
REMARK   20  A    between atoms: _51  and  _53
REMARK   21  A    between atoms: _53  and  _54
REMARK   22  A    between atoms: _56  and  _58
REMARK   23  A    between atoms: _58  and  _59
REMARK   24  A    between atoms: _58  and  _61
REMARK   25  A    between atoms: _61  and  _62
REMARK   26  A    between atoms: _65  and  _67
REMARK   27  A    between atoms: _67  and  _68
REMARK   28  A    between atoms: _67  and  _70
REMARK   29  A    between atoms: _70  and  _71
REMARK   30  A    between atoms: _74  and  _76
REMARK   31  A    between atoms: _76  and  _77
REMARK   32  A    between atoms: _76  and  _79
REMARK   33  A    between atoms: _79  and  _80
REMARK   34  A    between atoms: _82  and  _84
REMARK   35  A    between atoms: _84  and  _85
REMARK   36  A    between atoms: _84  and  _87
REMARK   37  A    between atoms: _87  and  _88
REMARK   38  A    between atoms: _88  and  _89
REMARK   39  A    between atoms: _92  and  _93
REMARK   40  A    between atoms: _99  and  _100
REMARK   41  A    between atoms: _105  and  _107
REMARK   42  A    between atoms: _107  and  _108
REMARK   43  A    between atoms: _107  and  _110
REMARK   44  A    between atoms: _110  and  _111
REMARK   45  A    between atoms: _114  and  _116
REMARK   46  A    between atoms: _116  and  _117
REMARK   47  A    between atoms: _116  and  _119
REMARK   48  A    between atoms: _119  and  _120
REMARK   49  A    between atoms: _123  and  _125
REMARK   50  A    between atoms: _125  and  _126
REMARK   51  A    between atoms: _125  and  _128
REMARK   52  A    between atoms: _128  and  _129
REMARK   53  A    between atoms: _131  and  _133
REMARK   54  A    between atoms: _133  and  _134
REMARK   55  A    between atoms: _136  and  _138
REMARK   56  A    between atoms: _138  and  _139
REMARK   57  A    between atoms: _138  and  _141
REMARK   58  A    between atoms: _141  and  _142
REMARK   59  A    between atoms: _147  and  _148
REMARK   60  A    between atoms: _150  and  _152
REMARK   61  A    between atoms: _152  and  _153
REMARK   62  A    between atoms: _152  and  _155
REMARK   63  A    between atoms: _155  and  _156
REMARK   64  A    between atoms: _159  and  _161
REMARK   65  A    between atoms: _161  and  _162
REMARK   66  A    between atoms: _161  and  _164
REMARK   67  A    between atoms: _164  and  _165
REMARK   68  A    between atoms: _168  and  _170
REMARK   69  A    between atoms: _170  and  _171
REMARK   70  A    between atoms: _173  and  _175
REMARK   71  A    between atoms: _175  and  _176
REMARK   72  A    between atoms: _175  and  _178
REMARK   73  A    between atoms: _178  and  _179
REMARK   74  A    between atoms: _179  and  _180
REMARK   75  A    between atoms: _185  and  _187
REMARK   76  A    between atoms: _187  and  _188
REMARK   77  A    between atoms: _187  and  _190
REMARK   78  A    between atoms: _190  and  _191
REMARK   79  A    between atoms: _194  and  _196
REMARK   80  A    between atoms: _196  and  _197
REMARK   81  A    between atoms: _196  and  _199
REMARK   82  A    between atoms: _202  and  _204
REMARK   83  A    between atoms: _204  and  _205
REMARK   84  A    between atoms: _204  and  _207
REMARK   85  A    between atoms: _210  and  _212
REMARK   86  A    between atoms: _212  and  _213
REMARK   87  A    between atoms: _216  and  _218
REMARK   88  A    between atoms: _218  and  _219
REMARK   89  A    between atoms: _218  and  _221
REMARK   90  A    between atoms: _221  and  _222
REMARK   91  A    between atoms: _222  and  _223
REMARK   92  A    between atoms: _223  and  _224
REMARK   93  A    between atoms: _233  and  _235
REMARK   94  A    between atoms: _235  and  _236
REMARK   95  A    between atoms: _235  and  _238
REMARK   96  A    between atoms: _238  and  _239
REMARK   97  A    between atoms: _239  and  _240
REMARK   98  A    between atoms: _243  and  _245
REMARK   99  A    between atoms: _245  and  _246
REMARK  100  A    between atoms: _245  and  _248
REMARK  101  A    between atoms: _248  and  _249
REMARK  102  A    between atoms: _252  and  _254
REMARK  103  A    between atoms: _254  and  _255
REMARK  104  A    between atoms: _254  and  _257
REMARK  105  A    between atoms: _257  and  _258
REMARK  106  A    between atoms: _263  and  _265
REMARK  107  A    between atoms: _265  and  _266
REMARK  108  A    between atoms: _265  and  _268
REMARK  109  A    between atoms: _268  and  _269
REMARK  110  A    between atoms: _269  and  _270
REMARK  111  A    between atoms: _270  and  _271
REMARK  112  A    between atoms: _281  and  _282
REMARK  113  A    between atoms: _287  and  _289
REMARK  114  A    between atoms: _289  and  _290
REMARK  115  A    between atoms: _289  and  _292
REMARK  116  A    between atoms: _292  and  _293
REMARK  117  A    between atoms: _298  and  _300
REMARK  118  A    between atoms: _300  and  _301
REMARK  119  A    between atoms: _300  and  _303
REMARK  120  A    between atoms: _303  and  _304
REMARK  121  A    between atoms: _308  and  _309
REMARK  122  A    between atoms: _314  and  _316
REMARK  123  A    between atoms: _316  and  _317
REMARK  124  A    between atoms: _316  and  _319
REMARK  125  A    between atoms: _319  and  _320
REMARK  126  A    between atoms: _322  and  _324
REMARK  127  A    between atoms: _324  and  _325
REMARK  128  A    between atoms: _324  and  _327
REMARK  129  A    between atoms: _327  and  _328
REMARK  130  A    between atoms: _331  and  _333
REMARK  131  A    between atoms: _333  and  _334
REMARK  132  A    between atoms: _333  and  _336
REMARK  133  A    between atoms: _336  and  _337
REMARK  134  A    between atoms: _337  and  _338
REMARK  135  A    between atoms: _338  and  _339
REMARK  136  A    between atoms: _348  and  _350
REMARK  137  A    between atoms: _350  and  _351
REMARK  138  A    between atoms: _350  and  _353
REMARK  139  A    between atoms: _353  and  _354
REMARK  140  A    between atoms: _360  and  _362
REMARK  141  A    between atoms: _362  and  _363
REMARK  142  A    between atoms: _362  and  _365
REMARK  143  A    between atoms: _365  and  _366
REMARK  144  A    between atoms: _368  and  _370
REMARK  145  A    between atoms: _370  and  _371
REMARK  146  A    between atoms: _374  and  _376
REMARK  147  A    between atoms: _376  and  _377
REMARK  148  A    between atoms: _376  and  _379
REMARK  149  A    between atoms: _379  and  _380
REMARK  150  A    between atoms: _385  and  _386
REMARK  151  A    between atoms: _388  and  _390
REMARK  152  A    between atoms: _390  and  _391
REMARK  153  A    between atoms: _390  and  _393
REMARK  154  A    between atoms: _393  and  _394
REMARK  155  A    between atoms: _394  and  _395
REMARK  156  A    between atoms: _397  and  _399
REMARK  157  A    between atoms: _399  and  _400
REMARK  158  A    between atoms: _399  and  _402
REMARK  159  A    between atoms: _402  and  _403
REMARK  160  A    between atoms: _408  and  _409
REMARK  161  A    between atoms: _411  and  _413
REMARK  162  A    between atoms: _413  and  _414
REMARK  163  A    between atoms: _413  and  _416
REMARK  164  A    between atoms: _416  and  _417
REMARK  165  A    between atoms: _420  and  _422
REMARK  166  A    between atoms: _422  and  _423
REMARK  167  A    between atoms: _422  and  _425
REMARK  168  A    between atoms: _425  and  _426
REMARK  169  A    between atoms: _426  and  _427
REMARK  170  A    between atoms: _429  and  _431
REMARK  171  A    between atoms: _431  and  _432
REMARK  172  A    between atoms: _431  and  _434
REMARK  173  A    between atoms: _434  and  _435
REMARK  174  A    between atoms: _439  and  _440
REMARK  175  A    between atoms: _445  and  _447
REMARK  176  A    between atoms: _447  and  _448
REMARK  177  A    between atoms: _447  and  _450
REMARK  178  A    between atoms: _450  and  _451
REMARK  179  A    between atoms: _455  and  _456
REMARK  180  A    between atoms: _461  and  _463
REMARK  181  A    between atoms: _463  and  _464
REMARK  182  A    between atoms: _463  and  _466
REMARK  183  A    between atoms: _466  and  _467
REMARK  184  A    between atoms: _470  and  _472
REMARK  185  A    between atoms: _472  and  _473
REMARK  186  A    between atoms: _472  and  _475
REMARK  187  A    between atoms: _475  and  _476
REMARK  188  A    between atoms: _479  and  _481
REMARK  189  A    between atoms: _481  and  _482
REMARK  190  A    between atoms: _481  and  _484
REMARK  191  A    between atoms: _484  and  _485
REMARK  192  A    between atoms: _487  and  _489
REMARK  193  A    between atoms: _489  and  _490
REMARK  194  A    between atoms: _492  and  _494
REMARK  195  A    between atoms: _494  and  _495
REMARK  196  A    between atoms: _494  and  _497
REMARK  197  A    between atoms: _497  and  _498
REMARK  198  A    between atoms: _503  and  _504
REMARK  199  A    between atoms: _506  and  _508
REMARK  200  A    between atoms: _508  and  _509
REMARK  201  A    between atoms: _508  and  _511
REMARK  202  A    between atoms: _511  and  _512
REMARK  203  A    between atoms: _515  and  _517
REMARK  204  A    between atoms: _517  and  _518
REMARK  205  A    between atoms: _517  and  _520
REMARK  206  A    between atoms: _520  and  _521
REMARK  207  A    between atoms: _524  and  _526
REMARK  208  A    between atoms: _526  and  _527
REMARK  209  A    between atoms: _529  and  _531
REMARK  210  A    between atoms: _531  and  _532
REMARK  211  A    between atoms: _531  and  _534
REMARK  212  A    between atoms: _534  and  _535
REMARK  213  A    between atoms: _535  and  _536
REMARK  214  A    between atoms: _541  and  _543
REMARK  215  A    between atoms: _543  and  _544
REMARK  216  A    between atoms: _543  and  _546
REMARK  217  A    between atoms: _546  and  _547
REMARK  218  A    between atoms: _550  and  _552
REMARK  219  A    between atoms: _552  and  _553
REMARK  220  A    between atoms: _552  and  _555
REMARK  221  A    between atoms: _558  and  _560
REMARK  222  A    between atoms: _560  and  _561
REMARK  223  A    between atoms: _560  and  _563
REMARK  224  A    between atoms: _566  and  _568
REMARK  225  A    between atoms: _568  and  _569
REMARK  226  A    between atoms: _572  and  _574
REMARK  227  A    between atoms: _574  and  _575
REMARK  228  A    between atoms: _574  and  _577
REMARK  229  A    between atoms: _577  and  _578
REMARK  230  A    between atoms: _578  and  _579
REMARK  231  A    between atoms: _579  and  _580
REMARK  232  A    between atoms: _589  and  _591
REMARK  233  A    between atoms: _591  and  _592
REMARK  234  A    between atoms: _591  and  _594
REMARK  235  A    between atoms: _594  and  _595
REMARK  236  A    between atoms: _600  and  _602
REMARK  237  A    between atoms: _602  and  _603
REMARK  238  A    between atoms: _602  and  _605
REMARK  239  A    between atoms: _605  and  _606
REMARK  240  A    between atoms: _610  and  _611
REMARK  241  A    between atoms: _616  and  _618
REMARK  242  A    between atoms: _618  and  _619
REMARK  243  A    between atoms: _618  and  _621
REMARK  244  A    between atoms: _621  and  _622
REMARK  245  A    between atoms: _624  and  _626
REMARK  246  A    between atoms: _626  and  _627
REMARK  247  A    between atoms: _626  and  _629
REMARK  248  A    between atoms: _629  and  _630
REMARK  249  A    between atoms: _633  and  _635
REMARK  250  A    between atoms: _635  and  _636
REMARK  251  A    between atoms: _635  and  _638
REMARK  252  A    between atoms: _638  and  _639
REMARK  253  A    between atoms: _639  and  _640
REMARK  254  A    between atoms: _640  and  _641
REMARK                            x       y       z     vdW  Elec       q    Type
REMARK                         _______ _______ _______ _____ _____    ______ ____
ROOT
ATOM      1  O   HOH     1     -29.187 -25.443  19.807  0.00  0.00    +0.000 OA
ENDROOT
TORSDOF 0
